                                   MODFLOW 6
                U.S. GEOLOGICAL SURVEY MODULAR HYDROLOGIC MODEL
                            VERSION 6.5.0 05/23/2024

   MODFLOW 6 compiled Jun 21 2024 02:57:23 with Intel(R) Fortran Intel(R) 64
   Compiler Classic for applications running on Intel(R) 64, Version 2021.7.0
                             Build 20220726_000000

This software has been approved for release by the U.S. Geological 
Survey (USGS). Although the software has been subjected to rigorous 
review, the USGS reserves the right to update the software as needed 
pursuant to further analysis and review. No warranty, expressed or 
implied, is made by the USGS or the U.S. Government as to the 
functionality of the software and related material nor shall the 
fact of release constitute any such warranty. Furthermore, the 
software is released on condition that neither the USGS nor the U.S. 
Government shall be held liable for any damages resulting from its 
authorized or unauthorized use. Also refer to the USGS Water 
Resources Software User Rights Notice for complete use, copyright, 
and distribution information.


As a work of the United States Government, this USGS product is 
in the public domain within the United States. You can copy, 
modify, distribute, and perform the work, even for commercial 
purposes, all without asking permission. Additionally, USGS 
waives copyright and related rights in the work worldwide 
through CC0 1.0 Universal Public Domain Dedication 
(https://creativecommons.org/publicdomain/zero/1.0/).

The following GNU Lesser General Public License (LGPL) libraries
are used in this USGS product:

    SPARSKIT version 2.0
      ilut, luson, and qsplit 
      (https://www-users.cse.umn.edu/~saad/software/SPARSKIT/)

    RCM - Reverse Cuthill McKee Ordering
      (https://people.math.sc.edu/Burkardt/f_src/rcm/rcm.html)

    BLAS - Basic Linear Algebra Subprograms Level 1
      (https://people.math.sc.edu/Burkardt/f_src/blas1_d/blas1_d.html)

    SPARSEKIT - Sparse Matrix Utility Package
      amux, dperm, dvperm, rperm, and cperm
      (https://people.sc.fsu.edu/~jburkardt/f77_src/sparsekit/sparsekit.html)

The following BSD-3 License libraries are used in this USGS product:

    Modern Fortran DAG Library
      Copyright (c) 2018, Jacob Williams
      All rights reserved.
      (https://github.com/jacobwilliams/daglib)

MODFLOW 6 compiler options: /O2 /heap-arrays:0 /fpe:0 /traceback /nologo /fpp
/c /module:win64\mod_mf6\ /object:win64\obj_mf6\

System command used to initiate simulation:
C:\Users\gross.DESKTOP-AIRQM2M\anaconda3\envs\gmdsitut\Scripts\mf6.exe

MODFLOW was compiled using uniform precision.

Real Variables
  KIND: 8
  TINY (smallest non-zero value):    2.225074-308
  HUGE (largest value):    1.797693+308
  PRECISION: 15
  SIZE IN BITS: 64

Integer Variables
  KIND: 4
  HUGE (largest value): 2147483647
  SIZE IN BITS: 32

Long Integer Variables
  KIND: 8
  HUGE (largest value): 9223372036854775807
  SIZE IN BITS: 64

Logical Variables
  KIND: 4
  SIZE IN BITS: 32
 

 OPENED mfsim.nam
 FILE TYPE:NAM6               UNIT 1001   STATUS:OLD                 
 FORMAT:FORMATTED              ACCESS:SEQUENTIAL          
 ACTION:READ                

 # File generated by Flopy version 3.8.2 on 11/13/2025 at 16:06:14.

 OPENED e14.tdis
 FILE TYPE:TDIS6              UNIT 1002   STATUS:OLD                 
 FORMAT:FORMATTED              ACCESS:SEQUENTIAL          
 ACTION:READ                

 # File generated by Flopy version 3.8.2 on 11/13/2025 at 16:06:14.

 OPENED e14.nam
 FILE TYPE:GWF6               UNIT 1003   STATUS:OLD                 
 FORMAT:FORMATTED              ACCESS:SEQUENTIAL          
 ACTION:READ                

 # File generated by Flopy version 3.8.2 on 11/13/2025 at 16:06:14.

 OPENED e14.dis
 FILE TYPE:DIS6               UNIT 1004   STATUS:OLD                 
 FORMAT:FORMATTED              ACCESS:SEQUENTIAL          
 ACTION:READ                

 # File generated by Flopy version 3.8.2 on 11/13/2025 at 16:06:14.

 OPENED e14.npf
 FILE TYPE:NPF6               UNIT 1005   STATUS:OLD                 
 FORMAT:FORMATTED              ACCESS:SEQUENTIAL          
 ACTION:READ                

 # File generated by Flopy version 3.8.2 on 11/13/2025 at 16:06:14.

 OPENED e14.sto
 FILE TYPE:STO6      UNIT 1006   STATUS:OLD                 
 FORMAT:FORMATTED              ACCESS:SEQUENTIAL          
 ACTION:READ                


 OPENED e14.ic
 FILE TYPE:IC6                UNIT 1007   STATUS:OLD                 
 FORMAT:FORMATTED              ACCESS:SEQUENTIAL          
 ACTION:READ                

 # File generated by Flopy version 3.8.2 on 11/13/2025 at 16:06:14.

 OPENED e14.oc
 FILE TYPE:OC6       UNIT 1008   STATUS:OLD                 
 FORMAT:FORMATTED              ACCESS:SEQUENTIAL          
 ACTION:READ                


 OPENED e14.gwf.obs
 FILE TYPE:OBS6      UNIT 1009   STATUS:OLD                 
 FORMAT:FORMATTED              ACCESS:SEQUENTIAL          
 ACTION:READ                


 OPENED e14.rcha
 FILE TYPE:RCH6               UNIT 1011   STATUS:OLD                 
 FORMAT:FORMATTED              ACCESS:SEQUENTIAL          
 ACTION:READ                

 # File generated by Flopy version 3.8.2 on 11/13/2025 at 16:06:14.

 OPENED e14.evta
 FILE TYPE:EVT6               UNIT 1013   STATUS:OLD                 
 FORMAT:FORMATTED              ACCESS:SEQUENTIAL          
 ACTION:READ                

 # File generated by Flopy version 3.8.2 on 11/13/2025 at 16:06:14.

 OPENED e14.chd
 FILE TYPE:CHD6               UNIT 1014   STATUS:OLD                 
 FORMAT:FORMATTED              ACCESS:SEQUENTIAL          
 ACTION:READ                

 # File generated by Flopy version 3.8.2 on 11/13/2025 at 16:06:14.

 OPENED e14.lak
 FILE TYPE:LAK6      UNIT 1015   STATUS:OLD                 
 FORMAT:FORMATTED              ACCESS:SEQUENTIAL          
 ACTION:READ                


 READING SIMULATION OPTIONS
    MAXIMUM NUMBER OF ERRORS THAT WILL BE STORED IS 1000
 END OF SIMULATION OPTIONS

 READING SIMULATION TIMING

 TDIS -- TEMPORAL DISCRETIZATION PACKAGE,
 VERSION 1 : 11/13/2014 - INPUT READ FROM MEMPATH: __INPUT__/SIM/TDIS                                
 PROCESSING TDIS OPTIONS
    SIMULATION TIME UNIT IS DAYS
 END OF TDIS OPTIONS
 PROCESSING TDIS DIMENSIONS
    1 STRESS PERIOD(S) IN SIMULATION
 END OF TDIS DIMENSIONS
 PROCESSING TDIS PERIODDATA


 STRESS PERIOD     LENGTH       TIME STEPS     MULTIPLIER FOR DELT
 ----------------------------------------------------------------------------
        1         5000.000        100                    1.020
 END OF TDIS PERIODDATA
 END OF SIMULATION TIMING

 READING SIMULATION MODELS
    GWF6 model 1 will be created
 END OF SIMULATION MODELS

 READING SIMULATION EXCHANGES
 END OF SIMULATION EXCHANGES

 READING SOLUTIONGROUP

 Creating solution: SLN_1           

 OPENED e14.ims
 FILE TYPE:IMS   UNIT 1017   STATUS:OLD                 
 FORMAT:FORMATTED              ACCESS:SEQUENTIAL          
 ACTION:READ                

 END OF SOLUTIONGROUP

PROCESSING MODEL CONNECTIONS

 IMS -- ITERATIVE MODEL SOLUTION PACKAGE, VERSION 6, 4/28/2017
         INPUT READ FROM UNIT 1017
 # File generated by Flopy version 3.8.2 on 11/13/2025 at 16:06:14.

 PROCESSING IMS OPTIONS
 END OF IMS OPTIONS

 PROCESSING IMS NONLINEAR
 END OF IMS NONLINEAR DATA
 ***UNDER-RELAXATION WILL NOT BE USED***
 

 PROCESSING LINEAR DATA
 END OF LINEAR DATA
 ***IMS LINEAR SOLVER WILL BE USED***

 IMSLINEAR -- UNSTRUCTURED LINEAR SOLUTION PACKAGE, VERSION 8, 04/28/2017
 An asymmetric matrix will be solved

 OUTER ITERATION CONVERGENCE CRITERION    (DVCLOSE) =    0.100000E-08
 MAXIMUM NUMBER OF OUTER ITERATIONS        (MXITER) = 500
 SOLVER PRINTOUT INDEX                     (IPRIMS) = 1
 NONLINEAR ITERATION METHOD            (NONLINMETH) = 0
 LINEAR SOLUTION METHOD                   (LINMETH) = 1

       SOLUTION BY THE BICONJUGATE-GRADIENT STABILIZED METHOD
 ------------------------------------------------------------------
 MAXIMUM OF 500 CALLS OF SOLUTION ROUTINE
 MAXIMUM OF 100 INTERNAL ITERATIONS PER CALL TO SOLUTION ROUTINE
 LINEAR ACCELERATION METHOD            = BCGS      
 MATRIX PRECONDITIONING TYPE           = INCOMPLETE LU       
 MATRIX SCALING APPROACH               = NO SCALING          
 MATRIX REORDERING APPROACH            = ORIGINAL ORDERING        
 NUMBER OF ORTHOGONALIZATIONS          = 0
 HEAD CHANGE CRITERION FOR CLOSURE     =    0.10000E-08
 RESIDUAL CHANGE CRITERION FOR CLOSURE =    0.10000E-05
 RESIDUAL CONVERGENCE OPTION           = 1
 RESIDUAL CONVERGENCE NORM             = INFINITY NORM S 
 RELAXATION FACTOR                     =    0.00000E+00



 
    Solving:  Stress period:     1    Time step:     1
 
1
 STRESS PERIOD NO. 1, LENGTH =   5000.000    
 ------------------------------------------
 NUMBER OF TIME STEPS = 100
 MULTIPLIER FOR DELT =     1.020
 INITIAL TIME STEP SIZE =   16.01372    

 SLN_1 OUTER ITERATION SUMMARY
 ----------------------------------------------------------------------------------------------------------
                                OUTER      INNER                    STEP   MAXIMUM CHANGE MODEL-(CELLID) OR
 OUTER ITERATION STEP       ITERATION  ITERATION  MAXIMUM CHANGE SUCCESS             MODEL-PACKAGE-(NUMBER)
 ----------------------------------------------------------------------------------------------------------
 Model                              1         10       11.179178                             1_GWF-(5,17,2)
 Model                              2          9      -1.1199241                              1_GWF-(3,9,9)
 Model                              3          9     -0.66516206                              1_GWF-(3,9,9)
 Model                              4          8     -0.39507866                              1_GWF-(3,9,9)
 Model                              5          8     -0.23466653                              1_GWF-(3,9,9)
 Model                              6          8     -0.13938805                              1_GWF-(3,9,9)
 Model                              7          8 -8.27949729E-02                              1_GWF-(3,9,9)
 Model                              8          7 -4.91795774E-02                              1_GWF-(3,9,9)
 Model                              9          7 -2.92123866E-02                              1_GWF-(3,9,9)
 Model                             10          7 -1.73520237E-02                              1_GWF-(3,9,9)
 Model                             11          7 -1.03070344E-02                              1_GWF-(3,9,9)
 Model                             12          7 -6.12234248E-03                              1_GWF-(3,9,9)
 Model                             13          6 -3.63665153E-03                              1_GWF-(3,9,9)
 Model                             14          6 -2.16015972E-03                              1_GWF-(3,9,9)
 Model                             15          6 -1.28312835E-03                              1_GWF-(3,9,9)
 Model                             16          6 -7.62174433E-04                              1_GWF-(3,9,9)
 Model                             17          6 -4.52729375E-04                              1_GWF-(3,9,9)
 Model                             18          6 -2.68919924E-04                              1_GWF-(3,9,9)
 Model                             19          5 -1.59737655E-04                              1_GWF-(3,9,9)
 Model                             20          5 -9.48837004E-05                              1_GWF-(3,9,9)
 Model                             21          5 -5.63606460E-05                              1_GWF-(3,9,9)
 Model                             22          5 -3.34780588E-05                              1_GWF-(3,9,9)
 Model                             23          4 -1.98858706E-05                              1_GWF-(3,9,9)
 Model                             24          4 -1.18121486E-05                              1_GWF-(3,9,9)
 Model                             25          4 -7.01638234E-06                              1_GWF-(3,9,9)
 Model                             26          4 -4.16771010E-06                              1_GWF-(3,9,9)
 Model                             27          4 -2.47561061E-06                              1_GWF-(3,9,9)
 Model                             28          4 -1.47050315E-06                              1_GWF-(3,9,9)
 Model                             29          3 -8.73475344E-07                              1_GWF-(3,9,9)
 Model                             30          3 -5.18842313E-07                              1_GWF-(3,9,9)
 Model                             31          3 -3.08189684E-07                              1_GWF-(3,9,9)
 Model                             32          3 -1.83064103E-07                              1_GWF-(3,9,9)
 Model                             33          3 -1.08740977E-07                              1_GWF-(3,9,9)
 Model                             34          3 -6.45904947E-08                              1_GWF-(3,9,9)
 Model                             35          3 -3.83672045E-08                              1_GWF-(3,9,9)
 Model                             36          2 -2.27889672E-08                              1_GWF-(3,9,9)
 Model                             37          2 -1.35384681E-08                              1_GWF-(3,9,9)
 Model                             38          2 -8.04153899E-09                              1_GWF-(3,9,9)
 Model                             39          2 -4.77663775E-09                              1_GWF-(3,9,9)
 Model                             40          2 -2.83661450E-09                              1_GWF-(3,9,9)
 Model                             41          2 -1.68492420E-09                              1_GWF-(3,9,9)
 Model                             42          2 -1.00094155E-09                             1_GWF-(3,10,9)
 Model                             43          1 -5.95960614E-10       *                      1_GWF-(3,9,8)
 Package                           43            -9.19841361E-10       *           1_GWF-LAK_0-(1)-residual
 ----------------------------------------------------------------------------------------------------------


 43 CALLS TO NUMERICAL SOLUTION IN TIME STEP 1 STRESS PERIOD 1
 211 TOTAL ITERATIONS
 
    Solving:  Stress period:     1    Time step:     2
 

 SLN_1 OUTER ITERATION SUMMARY
 ----------------------------------------------------------------------------------------------------------
                                OUTER      INNER                    STEP   MAXIMUM CHANGE MODEL-(CELLID) OR
 OUTER ITERATION STEP       ITERATION  ITERATION  MAXIMUM CHANGE SUCCESS             MODEL-PACKAGE-(NUMBER)
 ----------------------------------------------------------------------------------------------------------
 Model                              1         10       7.6831665                             1_GWF-(1,17,2)
 Model                              2          9 -7.91433721E-02                              1_GWF-(1,9,2)
 Model                              3          7  3.51171622E-02                              1_GWF-(3,9,9)
 Model                              4          7  2.10205223E-02                              1_GWF-(3,9,9)
 Model                              5          7  1.25825009E-02                              1_GWF-(3,9,9)
 Model                              6          7  7.53164896E-03                              1_GWF-(3,9,9)
 Model                              7          7  4.50830146E-03                              1_GWF-(3,9,9)
 Model                              8          6  2.69858245E-03                              1_GWF-(3,9,9)
 Model                              9          6  1.61531921E-03                              1_GWF-(3,9,9)
 Model                             10          6  9.66898696E-04                              1_GWF-(3,9,9)
 Model                             11          6  5.78766738E-04                              1_GWF-(3,9,9)
 Model                             12          6  3.46438491E-04                              1_GWF-(3,9,9)
 Model                             13          5  2.07371325E-04                              1_GWF-(3,9,9)
 Model                             14          5  1.24128426E-04                              1_GWF-(3,9,9)
 Model                             15          5  7.43008545E-05                              1_GWF-(3,9,9)
 Model                             16          5  4.44750420E-05                              1_GWF-(3,9,9)
 Model                             17          5  2.66218932E-05                              1_GWF-(3,9,9)
 Model                             18          4  1.59353434E-05                              1_GWF-(3,9,9)
 Model                             19          4  9.53858635E-06                              1_GWF-(3,9,9)
 Model                             20          4  5.70960883E-06                              1_GWF-(3,9,9)
 Model                             21          4  3.41766221E-06                              1_GWF-(3,9,9)
 Model                             22          4  2.04574808E-06                              1_GWF-(3,9,9)
 Model                             23          3  1.22454381E-06                              1_GWF-(3,9,9)
 Model                             24          3  7.32986123E-07                              1_GWF-(3,9,9)
 Model                             25          3  4.38751215E-07                              1_GWF-(3,9,9)
 Model                             26          3  2.62627410E-07                              1_GWF-(3,9,9)
 Model                             27          3  1.57207651E-07                              1_GWF-(3,9,9)
 Model                             28          3  9.40996330E-08                              1_GWF-(3,9,9)
 Model                             29          3  5.63260301E-08                              1_GWF-(3,9,9)
 Model                             30          2  3.37148265E-08                              1_GWF-(3,9,9)
 Model                             31          2  2.01817301E-08                              1_GWF-(3,9,9)
 Model                             32          2  1.20803492E-08                              1_GWF-(3,9,9)
 Model                             33          2  7.23214555E-09                              1_GWF-(3,9,9)
 Model                             34          2  4.32790159E-09                              1_GWF-(3,9,9)
 Model                             35          2  2.59036881E-09                              1_GWF-(3,9,9)
 Model                             36          2  1.55013424E-09                              1_GWF-(3,9,9)
 Model                             37          1  9.27457222E-10       *                     1_GWF-(3,10,9)
 Package                           37             1.46300501E-09                   1_GWF-LAK_0-(1)-residual
 Model                             38          1  5.56369173E-10       *                      1_GWF-(3,9,9)
 Package                           38             8.77975719E-10       *           1_GWF-LAK_0-(1)-residual
 ----------------------------------------------------------------------------------------------------------


 38 CALLS TO NUMERICAL SOLUTION IN TIME STEP 2 STRESS PERIOD 1
 166 TOTAL ITERATIONS
 
    Solving:  Stress period:     1    Time step:     3
 

 SLN_1 OUTER ITERATION SUMMARY
 ----------------------------------------------------------------------------------------------------------
                                OUTER      INNER                    STEP   MAXIMUM CHANGE MODEL-(CELLID) OR
 OUTER ITERATION STEP       ITERATION  ITERATION  MAXIMUM CHANGE SUCCESS             MODEL-PACKAGE-(NUMBER)
 ----------------------------------------------------------------------------------------------------------
 Model                              1         10       5.3765307                              1_GWF-(1,1,2)
 Model                              2          9 -9.20397520E-02                            1_GWF-(1,17,16)
 Model                              3          8  4.22334862E-02                              1_GWF-(3,9,9)
 Model                              4          7  2.54725924E-02                              1_GWF-(3,9,9)
 Model                              5          7  1.53634447E-02                              1_GWF-(3,9,9)
 Model                              6          7  9.26624114E-03                              1_GWF-(3,9,9)
 Model                              7          7  5.58879677E-03                              1_GWF-(3,9,9)
 Model                              8          7  3.37079909E-03                              1_GWF-(3,9,9)
 Model                              9          6  2.03304654E-03                              1_GWF-(3,9,9)
 Model                             10          6  1.22620112E-03                              1_GWF-(3,9,9)
 Model                             11          6  7.39564512E-04                              1_GWF-(3,9,9)
 Model                             12          6  4.46057036E-04                              1_GWF-(3,9,9)
 Model                             13          6  2.69032480E-04                              1_GWF-(3,9,9)
 Model                             14          5  1.62262821E-04                              1_GWF-(3,9,9)
 Model                             15          5  9.78663345E-05                              1_GWF-(3,9,9)
 Model                             16          5  5.90265811E-05                              1_GWF-(3,9,9)
 Model                             17          5  3.56009781E-05                              1_GWF-(3,9,9)
 Model                             18          5  2.14721860E-05                              1_GWF-(3,9,9)
 Model                             19          4  1.29506184E-05                              1_GWF-(3,9,9)
 Model                             20          4  7.81096503E-06                              1_GWF-(3,9,9)
 Model                             21          4  4.71106654E-06                              1_GWF-(3,9,9)
 Model                             22          4  2.84140620E-06                              1_GWF-(3,9,9)
 Model                             23          4  1.71375210E-06                              1_GWF-(3,9,9)
 Model                             24          3  1.03362366E-06                              1_GWF-(3,9,9)
 Model                             25          3  6.23412788E-07                              1_GWF-(3,9,9)
 Model                             26          3  3.76000202E-07                              1_GWF-(3,9,9)
 Model                             27          3  2.26780330E-07                              1_GWF-(3,9,9)
 Model                             28          3  1.36781154E-07                              1_GWF-(3,9,9)
 Model                             29          3  8.24960580E-08                              1_GWF-(3,9,9)
 Model                             30          3  4.97563235E-08                              1_GWF-(3,9,9)
 Model                             31          2  3.00110514E-08                              1_GWF-(3,9,9)
 Model                             32          2  1.80975661E-08                              1_GWF-(3,9,9)
 Model                             33          2  1.09164660E-08                              1_GWF-(3,9,9)
 Model                             34          2  6.58609167E-09                              1_GWF-(3,9,9)
 Model                             35          2  3.96977384E-09                              1_GWF-(3,9,9)
 Model                             36          2  2.39604958E-09                              1_GWF-(3,9,9)
 Model                             37          2  1.44471812E-09                              1_GWF-(3,9,9)
 Model                             38          1  8.71978045E-10       *                     1_GWF-(3,9,10)
 Package                           38             1.40313802E-09                   1_GWF-LAK_0-(1)-residual
 Model                             39          1  5.25631094E-10       *                      1_GWF-(3,9,9)
 Package                           39             8.46897998E-10       *           1_GWF-LAK_0-(1)-residual
 ----------------------------------------------------------------------------------------------------------


 39 CALLS TO NUMERICAL SOLUTION IN TIME STEP 3 STRESS PERIOD 1
 174 TOTAL ITERATIONS
 
    Solving:  Stress period:     1    Time step:     4
 

 SLN_1 OUTER ITERATION SUMMARY
 ----------------------------------------------------------------------------------------------------------
                                OUTER      INNER                    STEP   MAXIMUM CHANGE MODEL-(CELLID) OR
 OUTER ITERATION STEP       ITERATION  ITERATION  MAXIMUM CHANGE SUCCESS             MODEL-PACKAGE-(NUMBER)
 ----------------------------------------------------------------------------------------------------------
 Model                              1         11       3.8520984                             1_GWF-(1,17,2)
 Model                              2          9  7.41856466E-02                              1_GWF-(3,9,9)
 Model                              3          8  4.50849648E-02                              1_GWF-(3,9,9)
 Model                              4          8  2.73964608E-02                              1_GWF-(3,9,9)
 Model                              5          7  1.66477812E-02                              1_GWF-(3,9,9)
 Model                              6          7  1.01162080E-02                              1_GWF-(3,9,9)
 Model                              7          7  6.14722108E-03                              1_GWF-(3,9,9)
 Model                              8          7  3.73542250E-03                              1_GWF-(3,9,9)
 Model                              9          7  2.26986753E-03                              1_GWF-(3,9,9)
 Model                             10          6  1.37930791E-03                              1_GWF-(3,9,9)
 Model                             11          6  8.38150288E-04                              1_GWF-(3,9,9)
 Model                             12          6  5.09310400E-04                              1_GWF-(3,9,9)
 Model                             13          6  3.09487545E-04                              1_GWF-(3,9,9)
 Model                             14          6  1.88063191E-04                              1_GWF-(3,9,9)
 Model                             15          5  1.14278469E-04                              1_GWF-(3,9,9)
 Model                             16          5  6.94424494E-05                              1_GWF-(3,9,9)
 Model                             17          5  4.21973943E-05                              1_GWF-(3,9,9)
 Model                             18          5  2.56416669E-05                              1_GWF-(3,9,9)
 Model                             19          4  1.55814126E-05                              1_GWF-(3,9,9)
 Model                             20          4  9.46819901E-06                              1_GWF-(3,9,9)
 Model                             21          4  5.75344622E-06                              1_GWF-(3,9,9)
 Model                             22          4  3.49613862E-06                              1_GWF-(3,9,9)
 Model                             23          4  2.12446706E-06                              1_GWF-(3,9,9)
 Model                             24          4  1.29094938E-06                              1_GWF-(3,9,9)
 Model                             25          3  7.84460738E-07                              1_GWF-(3,9,9)
 Model                             26          3  4.76684505E-07                              1_GWF-(3,9,9)
 Model                             27          3  2.89660562E-07                              1_GWF-(3,9,9)
 Model                             28          3  1.76016300E-07                              1_GWF-(3,9,9)
 Model                             29          3  1.06959234E-07                              1_GWF-(3,9,9)
 Model                             30          3  6.49928040E-08                              1_GWF-(3,9,9)
 Model                             31          3  3.94955748E-08                              1_GWF-(3,9,9)
 Model                             32          2  2.39988793E-08                              1_GWF-(3,9,9)
 Model                             33          2  1.45825538E-08                              1_GWF-(3,9,9)
 Model                             34          2  8.86232954E-09                              1_GWF-(3,9,9)
 Model                             35          2  5.38412337E-09                              1_GWF-(3,9,9)
 Model                             36          2  3.27491989E-09                              1_GWF-(3,9,9)
 Model                             37          2  1.98738803E-09                             1_GWF-(3,10,9)
 Model                             38          2  1.20863319E-09                              1_GWF-(3,9,9)
 Model                             39          1  7.35084882E-10       *                    1_GWF-(3,10,10)
 Package                           39             1.20604030E-09                   1_GWF-LAK_0-(1)-residual
 Model                             40          1  4.46760851E-10       *                      1_GWF-(3,9,8)
 Package                           40             7.33074433E-10       *           1_GWF-LAK_0-(1)-residual
 ----------------------------------------------------------------------------------------------------------


 40 CALLS TO NUMERICAL SOLUTION IN TIME STEP 4 STRESS PERIOD 1
 182 TOTAL ITERATIONS
 
    Solving:  Stress period:     1    Time step:     5
 

 SLN_1 OUTER ITERATION SUMMARY
 ----------------------------------------------------------------------------------------------------------
                                OUTER      INNER                    STEP   MAXIMUM CHANGE MODEL-(CELLID) OR
 OUTER ITERATION STEP       ITERATION  ITERATION  MAXIMUM CHANGE SUCCESS             MODEL-PACKAGE-(NUMBER)
 ----------------------------------------------------------------------------------------------------------
 Model                              1         11       3.0335147                              1_GWF-(1,1,3)
 Model                              2          9  7.87263541E-02                              1_GWF-(3,9,9)
 Model                              3          8  4.81960149E-02                              1_GWF-(3,9,9)
 Model                              4          8  2.95036419E-02                              1_GWF-(3,9,9)
 Model                              5          8  1.80608929E-02                              1_GWF-(3,9,9)
 Model                              6          7  1.10561074E-02                              1_GWF-(3,9,9)
 Model                              7          7  6.76807149E-03                              1_GWF-(3,9,9)
 Model                              8          7  4.14311908E-03                              1_GWF-(3,9,9)
 Model                              9          7  2.53623661E-03                              1_GWF-(3,9,9)
 Model                             10          7  1.55257304E-03                              1_GWF-(3,9,9)
 Model                             11          6  9.50417151E-04                              1_GWF-(3,9,9)
 Model                             12          6  5.81803678E-04                              1_GWF-(3,9,9)
 Model                             13          6  3.56154668E-04                              1_GWF-(3,9,9)
 Model                             14          6  2.18022245E-04                              1_GWF-(3,9,9)
 Model                             15          6  1.33463641E-04                              1_GWF-(3,9,9)
 Model                             16          5  8.17005761E-05                              1_GWF-(3,9,9)
 Model                             17          5  5.00135031E-05                              1_GWF-(3,9,9)
 Model                             18          5  3.06160700E-05                              1_GWF-(3,9,9)
 Model                             19          5  1.87418130E-05                              1_GWF-(3,9,9)
 Model                             20          4  1.14729120E-05                              1_GWF-(3,9,9)
 Model                             21          4  7.02321202E-06                              1_GWF-(3,9,9)
 Model                             22          4  4.29930182E-06                              1_GWF-(3,9,9)
 Model                             23          4  2.63184535E-06                              1_GWF-(3,9,9)
 Model                             24          4  1.61110057E-06                              1_GWF-(3,9,9)
 Model                             25          3  9.86243734E-07                              1_GWF-(3,9,9)
 Model                             26          3  6.03734833E-07                              1_GWF-(3,9,9)
 Model                             27          3  3.69580022E-07                              1_GWF-(3,9,9)
 Model                             28          3  2.26241056E-07                              1_GWF-(3,9,9)
 Model                             29          3  1.38496361E-07                              1_GWF-(3,9,9)
 Model                             30          3  8.47805666E-08                              1_GWF-(3,9,9)
 Model                             31          3  5.18982546E-08                              1_GWF-(3,9,9)
 Model                             32          3  3.17708242E-08                              1_GWF-(3,9,9)
 Model                             33          2  1.94484784E-08                              1_GWF-(3,9,9)
 Model                             34          2  1.19047598E-08                              1_GWF-(3,9,9)
 Model                             35          2  7.28776683E-09                              1_GWF-(3,9,9)
 Model                             36          2  4.46158310E-09                              1_GWF-(3,9,9)
 Model                             37          2  2.73097100E-09                              1_GWF-(3,9,9)
 Model                             38          2  1.67361236E-09                              1_GWF-(3,9,9)
 Model                             39          2  1.02255626E-09                              1_GWF-(3,9,8)
 Model                             40          1  6.27210284E-10       *                     1_GWF-(3,9,10)
 Package                           40             1.04888743E-09                   1_GWF-LAK_0-(1)-residual
 Model                             41          1  3.83820975E-10       *                      1_GWF-(3,9,8)
 Package                           41             6.42409163E-10       *           1_GWF-LAK_0-(1)-residual
 ----------------------------------------------------------------------------------------------------------


 41 CALLS TO NUMERICAL SOLUTION IN TIME STEP 5 STRESS PERIOD 1
 189 TOTAL ITERATIONS
 
    Solving:  Stress period:     1    Time step:     6
 

 SLN_1 OUTER ITERATION SUMMARY
 ----------------------------------------------------------------------------------------------------------
                                OUTER      INNER                    STEP   MAXIMUM CHANGE MODEL-(CELLID) OR
 OUTER ITERATION STEP       ITERATION  ITERATION  MAXIMUM CHANGE SUCCESS             MODEL-PACKAGE-(NUMBER)
 ----------------------------------------------------------------------------------------------------------
 Model                              1         12       2.8054808                              1_GWF-(1,1,3)
 Model                              2          9  8.36664378E-02                              1_GWF-(3,9,9)
 Model                              3          8  5.15922759E-02                              1_GWF-(3,9,9)
 Model                              4          8  3.18131491E-02                              1_GWF-(3,9,9)
 Model                              5          8  1.96167762E-02                              1_GWF-(3,9,9)
 Model                              6          8  1.20961733E-02                              1_GWF-(3,9,9)
 Model                              7          7  7.45878313E-03                              1_GWF-(3,9,9)
 Model                              8          7  4.59925752E-03                              1_GWF-(3,9,9)
 Model                              9          7  2.83600720E-03                              1_GWF-(3,9,9)
 Model                             10          7  1.74874644E-03                              1_GWF-(3,9,9)
 Model                             11          7  1.07831663E-03                              1_GWF-(3,9,9)
 Model                             12          6  6.64914382E-04                              1_GWF-(3,9,9)
 Model                             13          6  4.10001201E-04                              1_GWF-(3,9,9)
 Model                             14          6  2.52815980E-04                              1_GWF-(3,9,9)
 Model                             15          6  1.55892028E-04                              1_GWF-(3,9,9)
 Model                             16          6  9.61265350E-05                              1_GWF-(3,9,9)
 Model                             17          5  5.92737840E-05                              1_GWF-(3,9,9)
 Model                             18          5  3.65495501E-05                              1_GWF-(3,9,9)
 Model                             19          5  2.25372750E-05                              1_GWF-(3,9,9)
 Model                             20          4  1.38969906E-05                              1_GWF-(3,9,9)
 Model                             21          4  8.56919580E-06                              1_GWF-(3,9,9)
 Model                             22          4  5.28395871E-06                              1_GWF-(3,9,9)
 Model                             23          4  3.25821031E-06                              1_GWF-(3,9,9)
 Model                             24          4  2.00908475E-06                              1_GWF-(3,9,9)
 Model                             25          4  1.23884649E-06                              1_GWF-(3,9,9)
 Model                             26          3  7.63902278E-07                              1_GWF-(3,9,9)
 Model                             27          3  4.71038902E-07                              1_GWF-(3,9,9)
 Model                             28          3  2.90451680E-07                              1_GWF-(3,9,9)
 Model                             29          3  1.79099771E-07                              1_GWF-(3,9,9)
 Model                             30          3  1.10437512E-07                              1_GWF-(3,9,9)
 Model                             31          3  6.80983590E-08                              1_GWF-(3,9,9)
 Model                             32          3  4.19898072E-08                              1_GWF-(3,9,9)
 Model                             33          2  2.58936552E-08                              1_GWF-(3,9,9)
 Model                             34          2  1.59668616E-08                              1_GWF-(3,9,9)
 Model                             35          2  9.84323378E-09                              1_GWF-(3,9,9)
 Model                             36          2  6.07100503E-09                              1_GWF-(3,9,9)
 Model                             37          2  3.74444653E-09                              1_GWF-(3,9,9)
 Model                             38          2  2.30747332E-09                              1_GWF-(3,9,9)
 Model                             39          2  1.42469503E-09                             1_GWF-(3,10,9)
 Model                             40          1  8.78031869E-10       *                      1_GWF-(3,9,9)
 Package                           40             1.49807251E-09                   1_GWF-LAK_0-(1)-residual
 Model                             41          1  5.42314638E-10       *                     1_GWF-(3,10,9)
 Package                           41             9.26107504E-10       *           1_GWF-LAK_0-(1)-residual
 ----------------------------------------------------------------------------------------------------------


 41 CALLS TO NUMERICAL SOLUTION IN TIME STEP 6 STRESS PERIOD 1
 194 TOTAL ITERATIONS
 
    Solving:  Stress period:     1    Time step:     7
 

 SLN_1 OUTER ITERATION SUMMARY
 ----------------------------------------------------------------------------------------------------------
                                OUTER      INNER                    STEP   MAXIMUM CHANGE MODEL-(CELLID) OR
 OUTER ITERATION STEP       ITERATION  ITERATION  MAXIMUM CHANGE SUCCESS             MODEL-PACKAGE-(NUMBER)
 ----------------------------------------------------------------------------------------------------------
 Model                              1         11       2.5541002                              1_GWF-(1,1,3)
 Model                              2          9  8.90032907E-02                              1_GWF-(3,9,9)
 Model                              3          9  5.52763866E-02                              1_GWF-(3,9,9)
 Model                              4          8  3.43301037E-02                              1_GWF-(3,9,9)
 Model                              5          8  2.13210943E-02                              1_GWF-(3,9,9)
 Model                              6          8  1.32416829E-02                              1_GWF-(3,9,9)
 Model                              7          8  8.22387417E-03                              1_GWF-(3,9,9)
 Model                              8          7  5.10751282E-03                              1_GWF-(3,9,9)
 Model                              9          7  3.17206671E-03                              1_GWF-(3,9,9)
 Model                             10          7  1.97004007E-03                              1_GWF-(3,9,9)
 Model                             11          7  1.22351061E-03                              1_GWF-(3,9,9)
 Model                             12          7  7.59871900E-04                              1_GWF-(3,9,9)
 Model                             13          6  4.71925021E-04                              1_GWF-(3,9,9)
 Model                             14          6  2.93093110E-04                              1_GWF-(3,9,9)
 Model                             15          6  1.82028003E-04                              1_GWF-(3,9,9)
 Model                             16          6  1.13050057E-04                              1_GWF-(3,9,9)
 Model                             17          5  7.02107111E-05                              1_GWF-(3,9,9)
 Model                             18          5  4.36049669E-05                              1_GWF-(3,9,9)
 Model                             19          5  2.70812397E-05                              1_GWF-(3,9,9)
 Model                             20          5  1.68190364E-05                              1_GWF-(3,9,9)
 Model                             21          4  1.04456090E-05                              1_GWF-(3,9,9)
 Model                             22          4  6.48733170E-06                              1_GWF-(3,9,9)
 Model                             23          4  4.02901291E-06                              1_GWF-(3,9,9)
 Model                             24          4  2.50225436E-06                              1_GWF-(3,9,9)
 Model                             25          4  1.55404864E-06                              1_GWF-(3,9,9)
 Model                             26          3  9.65154697E-07                              1_GWF-(3,9,9)
 Model                             27          3  5.99417376E-07                              1_GWF-(3,9,9)
 Model                             28          3  3.72273092E-07                              1_GWF-(3,9,9)
 Model                             29          3  2.31202833E-07                              1_GWF-(3,9,9)
 Model                             30          3  1.43591876E-07                              1_GWF-(3,9,9)
 Model                             31          3  8.91780587E-08                              1_GWF-(3,9,9)
 Model                             32          3  5.53860815E-08                              1_GWF-(3,9,9)
 Model                             33          3  3.43967486E-08                              1_GWF-(3,9,9)
 Model                             34          2  2.13640732E-08                              1_GWF-(3,9,9)
 Model                             35          2  1.32666713E-08                              1_GWF-(3,9,9)
 Model                             36          2  8.23931146E-09                              1_GWF-(3,9,9)
 Model                             37          2  5.11811038E-09                              1_GWF-(3,9,9)
 Model                             38          2  3.17727711E-09                              1_GWF-(3,9,9)
 Model                             39          2  1.97456984E-09                              1_GWF-(3,9,9)
 Model                             40          2  1.22741994E-09                              1_GWF-(3,9,9)
 Model                             41          1  7.62682362E-10       *                     1_GWF-(3,9,10)
 Package                           41             1.32659435E-09                   1_GWF-LAK_0-(1)-residual
 Model                             42          1  4.72965667E-10       *                     1_GWF-(3,8,10)
 Package                           42             8.24472271E-10       *           1_GWF-LAK_0-(1)-residual
 ----------------------------------------------------------------------------------------------------------


 42 CALLS TO NUMERICAL SOLUTION IN TIME STEP 7 STRESS PERIOD 1
 200 TOTAL ITERATIONS
 
    Solving:  Stress period:     1    Time step:     8
 

 SLN_1 OUTER ITERATION SUMMARY
 ----------------------------------------------------------------------------------------------------------
                                OUTER      INNER                    STEP   MAXIMUM CHANGE MODEL-(CELLID) OR
 OUTER ITERATION STEP       ITERATION  ITERATION  MAXIMUM CHANGE SUCCESS             MODEL-PACKAGE-(NUMBER)
 ----------------------------------------------------------------------------------------------------------
 Model                              1         11       2.3058011                             1_GWF-(1,17,3)
 Model                              2          9  9.47391134E-02                              1_GWF-(3,9,9)
 Model                              3          9  5.92539668E-02                              1_GWF-(3,9,9)
 Model                              4          9  3.70614719E-02                              1_GWF-(3,9,9)
 Model                              5          8  2.31807076E-02                              1_GWF-(3,9,9)
 Model                              6          8  1.44987301E-02                              1_GWF-(3,9,9)
 Model                              7          8  9.06844387E-03                              1_GWF-(3,9,9)
 Model                              8          8  5.67198770E-03                              1_GWF-(3,9,9)
 Model                              9          7  3.54762419E-03                              1_GWF-(3,9,9)
 Model                             10          7  2.21891067E-03                              1_GWF-(3,9,9)
 Model                             11          7  1.38784818E-03                              1_GWF-(3,9,9)
 Model                             12          7  8.68048627E-04                              1_GWF-(3,9,9)
 Model                             13          6  5.42932854E-04                              1_GWF-(3,9,9)
 Model                             14          6  3.39584744E-04                              1_GWF-(3,9,9)
 Model                             15          6  2.12397897E-04                              1_GWF-(3,9,9)
 Model                             16          6  1.32847148E-04                              1_GWF-(3,9,9)
 Model                             17          6  8.30910548E-05                              1_GWF-(3,9,9)
 Model                             18          5  5.19704272E-05                              1_GWF-(3,9,9)
 Model                             19          5  3.25056092E-05                              1_GWF-(3,9,9)
 Model                             20          5  2.03310743E-05                              1_GWF-(3,9,9)
 Model                             21          5  1.27163477E-05                              1_GWF-(3,9,9)
 Model                             22          4  7.95361113E-06                              1_GWF-(3,9,9)
 Model                             23          4  4.97469401E-06                              1_GWF-(3,9,9)
 Model                             24          4  3.11148953E-06                              1_GWF-(3,9,9)
 Model                             25          4  1.94612471E-06                              1_GWF-(3,9,9)
 Model                             26          4  1.21723014E-06                              1_GWF-(3,9,9)
 Model                             27          3  7.61331819E-07                              1_GWF-(3,9,9)
 Model                             28          3  4.76185249E-07                              1_GWF-(3,9,9)
 Model                             29          3  2.97836777E-07                              1_GWF-(3,9,9)
 Model                             30          3  1.86286570E-07                              1_GWF-(3,9,9)
 Model                             31          3  1.16514528E-07                              1_GWF-(3,9,9)
 Model                             32          3  7.28777962E-08                              1_GWF-(3,9,9)
 Model                             33          3  4.55816007E-08                              1_GWF-(3,9,9)
 Model                             34          3  2.85085520E-08                              1_GWF-(3,9,9)
 Model                             35          2  1.78331874E-08                              1_GWF-(3,9,9)
 Model                             36          2  1.11526219E-08                              1_GWF-(3,9,9)
 Model                             37          2  6.97511382E-09                              1_GWF-(3,9,9)
 Model                             38          2  4.36364189E-09                              1_GWF-(3,9,9)
 Model                             39          2  2.72844147E-09                              1_GWF-(3,9,9)
 Model                             40          2  1.70685155E-09                              1_GWF-(3,9,9)
 Model                             41          2  1.06875575E-09                              1_GWF-(3,9,8)
 Model                             42          1  6.69331257E-10       *                      1_GWF-(3,9,9)
 Package                           42             1.18716041E-09                   1_GWF-LAK_0-(1)-residual
 Model                             43          1  4.17003321E-10       *                     1_GWF-(3,9,10)
 Package                           43             7.42487928E-10       *           1_GWF-LAK_0-(1)-residual
 ----------------------------------------------------------------------------------------------------------


 43 CALLS TO NUMERICAL SOLUTION IN TIME STEP 8 STRESS PERIOD 1
 208 TOTAL ITERATIONS
 
    Solving:  Stress period:     1    Time step:     9
 

 SLN_1 OUTER ITERATION SUMMARY
 ----------------------------------------------------------------------------------------------------------
                                OUTER      INNER                    STEP   MAXIMUM CHANGE MODEL-(CELLID) OR
 OUTER ITERATION STEP       ITERATION  ITERATION  MAXIMUM CHANGE SUCCESS             MODEL-PACKAGE-(NUMBER)
 ----------------------------------------------------------------------------------------------------------
 Model                              1         11       2.0784494                             1_GWF-(1,17,3)
 Model                              2          9      0.10087386                              1_GWF-(3,9,9)
 Model                              3          9  6.35303425E-02                              1_GWF-(3,9,9)
 Model                              4          9  4.00140657E-02                              1_GWF-(3,9,9)
 Model                              5          9  2.52024545E-02                              1_GWF-(3,9,9)
 Model                              6          8  1.58734808E-02                              1_GWF-(3,9,9)
 Model                              7          8  9.99772020E-03                              1_GWF-(3,9,9)
 Model                              8          8  6.29693856E-03                              1_GWF-(3,9,9)
 Model                              9          8  3.96604581E-03                              1_GWF-(3,9,9)
 Model                             10          7  2.49796223E-03                              1_GWF-(3,9,9)
 Model                             11          7  1.57330863E-03                              1_GWF-(3,9,9)
 Model                             12          7  9.90927614E-04                              1_GWF-(3,9,9)
 Model                             13          7  6.24122593E-04                              1_GWF-(3,9,9)
 Model                             14          6  3.93095305E-04                              1_GWF-(3,9,9)
 Model                             15          6  2.47585836E-04                              1_GWF-(3,9,9)
 Model                             16          6  1.55938635E-04                              1_GWF-(3,9,9)
 Model                             17          6  9.82158682E-05                              1_GWF-(3,9,9)
 Model                             18          6  6.18599519E-05                              1_GWF-(3,9,9)
 Model                             19          5  3.89616641E-05                              1_GWF-(3,9,9)
 Model                             20          5  2.45394832E-05                              1_GWF-(3,9,9)
 Model                             21          5  1.54558664E-05                              1_GWF-(3,9,9)
 Model                             22          5  9.73466955E-06                              1_GWF-(3,9,9)
 Model                             23          4  6.13125253E-06                              1_GWF-(3,9,9)
 Model                             24          4  3.86168466E-06                              1_GWF-(3,9,9)
 Model                             25          4  2.43223342E-06                              1_GWF-(3,9,9)
 Model                             26          4  1.53190929E-06                              1_GWF-(3,9,9)
 Model                             27          4  9.64850216E-07                              1_GWF-(3,9,9)
 Model                             28          3  6.07701992E-07                              1_GWF-(3,9,9)
 Model                             29          3  3.82749633E-07                              1_GWF-(3,9,9)
 Model                             30          3  2.41071746E-07                              1_GWF-(3,9,9)
 Model                             31          3  1.51834527E-07                              1_GWF-(3,9,9)
 Model                             32          3  9.56321600E-08                              1_GWF-(3,9,9)
 Model                             33          3  6.02325088E-08                              1_GWF-(3,9,9)
 Model                             34          3  3.79364451E-08                              1_GWF-(3,9,9)
 Model                             35          2  2.38927242E-08                              1_GWF-(3,9,9)
 Model                             36          2  1.50506025E-08                              1_GWF-(3,9,9)
 Model                             37          2  9.47851220E-09                              1_GWF-(3,9,9)
 Model                             38          2  5.96936900E-09                              1_GWF-(3,9,9)
 Model                             39          2  3.75979425E-09                              1_GWF-(3,9,9)
 Model                             40          2  2.37017161E-09                              1_GWF-(3,9,9)
 Model                             41          2  1.49243817E-09                             1_GWF-(3,9,10)
 Model                             42          1  9.41298595E-10       *                      1_GWF-(3,9,9)
 Package                           42             1.70257143E-09                   1_GWF-LAK_0-(1)-residual
 Model                             43          1  5.92024207E-10       *                     1_GWF-(3,10,8)
 Package                           43             1.07494972E-09                   1_GWF-LAK_0-(1)-residual
 Model                             44          1  3.73390208E-10       *                      1_GWF-(3,8,9)
 Package                           44             6.76685360E-10       *           1_GWF-LAK_0-(1)-residual
 ----------------------------------------------------------------------------------------------------------


 44 CALLS TO NUMERICAL SOLUTION IN TIME STEP 9 STRESS PERIOD 1
 215 TOTAL ITERATIONS
 
    Solving:  Stress period:     1    Time step:    10
 

 SLN_1 OUTER ITERATION SUMMARY
 ----------------------------------------------------------------------------------------------------------
                                OUTER      INNER                    STEP   MAXIMUM CHANGE MODEL-(CELLID) OR
 OUTER ITERATION STEP       ITERATION  ITERATION  MAXIMUM CHANGE SUCCESS             MODEL-PACKAGE-(NUMBER)
 ----------------------------------------------------------------------------------------------------------
 Model                              1         11       1.9511030                             1_GWF-(1,17,4)
 Model                              2          9      0.10740379                              1_GWF-(3,9,9)
 Model                              3          9  6.81067121E-02                              1_GWF-(3,9,9)
 Model                              4          9  4.31921065E-02                              1_GWF-(3,9,9)
 Model                              5          9  2.73916000E-02                              1_GWF-(3,9,9)
 Model                              6          9  1.73711873E-02                              1_GWF-(3,9,9)
 Model                              7          8  1.10164337E-02                              1_GWF-(3,9,9)
 Model                              8          8  6.98637955E-03                              1_GWF-(3,9,9)
 Model                              9          8  4.43060563E-03                              1_GWF-(3,9,9)
 Model                             10          8  2.80979001E-03                              1_GWF-(3,9,9)
 Model                             11          7  1.78190498E-03                              1_GWF-(3,9,9)
 Model                             12          7  1.13004349E-03                              1_GWF-(3,9,9)
 Model                             13          7  7.16647743E-04                              1_GWF-(3,9,9)
 Model                             14          7  4.54481585E-04                              1_GWF-(3,9,9)
 Model                             15          6  2.88221803E-04                              1_GWF-(3,9,9)
 Model                             16          6  1.82783657E-04                              1_GWF-(3,9,9)
 Model                             17          6  1.15917201E-04                              1_GWF-(3,9,9)
 Model                             18          6  7.35120284E-05                              1_GWF-(3,9,9)
 Model                             19          6  4.66196404E-05                              1_GWF-(3,9,9)
 Model                             20          5  2.95651061E-05                              1_GWF-(3,9,9)
 Model                             21          5  1.87495107E-05                              1_GWF-(3,9,9)
 Model                             22          5  1.18905112E-05                              1_GWF-(3,9,9)
 Model                             23          4  7.54068752E-06                              1_GWF-(3,9,9)
 Model                             24          4  4.78212759E-06                              1_GWF-(3,9,9)
 Model                             25          4  3.03271666E-06                              1_GWF-(3,9,9)
 Model                             26          4  1.92328264E-06                              1_GWF-(3,9,9)
 Model                             27          4  1.21969973E-06                              1_GWF-(3,9,9)
 Model                             28          3  7.73507310E-07                              1_GWF-(3,9,9)
 Model                             29          3  4.90537531E-07                              1_GWF-(3,9,9)
 Model                             30          3  3.11088499E-07                              1_GWF-(3,9,9)
 Model                             31          3  1.97285488E-07                              1_GWF-(3,9,9)
 Model                             32          3  1.25114838E-07                              1_GWF-(3,9,9)
 Model                             33          3  7.93447157E-08                              1_GWF-(3,9,9)
 Model                             34          3  5.03196418E-08                              1_GWF-(3,9,9)
 Model                             35          3  3.19102043E-08                              1_GWF-(3,9,9)
 Model                             36          2  2.02365840E-08                              1_GWF-(3,9,9)
 Model                             37          2  1.28344340E-08                              1_GWF-(3,9,9)
 Model                             38          2  8.13984968E-09                              1_GWF-(3,9,9)
 Model                             39          2  5.16307352E-09                              1_GWF-(3,9,9)
 Model                             40          2  3.27328564E-09                              1_GWF-(3,9,9)
 Model                             41          2  2.07610640E-09                              1_GWF-(3,9,9)
 Model                             42          2  1.31741729E-09                             1_GWF-(3,9,10)
 Model                             43          1  8.34461389E-10       *                      1_GWF-(3,8,9)
 Package                           43             1.54415657E-09                   1_GWF-LAK_0-(1)-residual
 Model                             44          1  5.30164357E-10       *                      1_GWF-(3,9,9)
 Package                           44             9.79585228E-10       *           1_GWF-LAK_0-(1)-residual
 ----------------------------------------------------------------------------------------------------------


 44 CALLS TO NUMERICAL SOLUTION IN TIME STEP 10 STRESS PERIOD 1
 221 TOTAL ITERATIONS
 
    Solving:  Stress period:     1    Time step:    11
 

 SLN_1 OUTER ITERATION SUMMARY
 ----------------------------------------------------------------------------------------------------------
                                OUTER      INNER                    STEP   MAXIMUM CHANGE MODEL-(CELLID) OR
 OUTER ITERATION STEP       ITERATION  ITERATION  MAXIMUM CHANGE SUCCESS             MODEL-PACKAGE-(NUMBER)
 ----------------------------------------------------------------------------------------------------------
 Model                              1         11       1.9042760                             1_GWF-(1,17,4)
 Model                              2          9      0.11431579                              1_GWF-(3,9,9)
 Model                              3          9  7.29793826E-02                              1_GWF-(3,9,9)
 Model                              4          9  4.65966453E-02                              1_GWF-(3,9,9)
 Model                              5          9  2.97514081E-02                              1_GWF-(3,9,9)
 Model                              6          9  1.89958787E-02                              1_GWF-(3,9,9)
 Model                              7          9  1.21285981E-02                              1_GWF-(3,9,9)
 Model                              8          8  7.74392989E-03                              1_GWF-(3,9,9)
 Model                              9          8  4.94438131E-03                              1_GWF-(3,9,9)
 Model                             10          8  3.15691094E-03                              1_GWF-(3,9,9)
 Model                             11          8  2.01563828E-03                              1_GWF-(3,9,9)
 Model                             12          7  1.28695333E-03                              1_GWF-(3,9,9)
 Model                             13          7  8.21699370E-04                              1_GWF-(3,9,9)
 Model                             14          7  5.24642032E-04                              1_GWF-(3,9,9)
 Model                             15          7  3.34975617E-04                              1_GWF-(3,9,9)
 Model                             16          6  2.13876609E-04                              1_GWF-(3,9,9)
 Model                             17          6  1.36556816E-04                              1_GWF-(3,9,9)
 Model                             18          6  8.71893557E-05                              1_GWF-(3,9,9)
 Model                             19          6  5.56690175E-05                              1_GWF-(3,9,9)
 Model                             20          5  3.55437827E-05                              1_GWF-(3,9,9)
 Model                             21          5  2.26941385E-05                              1_GWF-(3,9,9)
 Model                             22          5  1.44898465E-05                              1_GWF-(3,9,9)
 Model                             23          5  9.25153647E-06                              1_GWF-(3,9,9)
 Model                             24          4  5.90696114E-06                              1_GWF-(3,9,9)
 Model                             25          4  3.77149662E-06                              1_GWF-(3,9,9)
 Model                             26          4  2.40804005E-06                              1_GWF-(3,9,9)
 Model                             27          4  1.53749872E-06                              1_GWF-(3,9,9)
 Model                             28          4  9.81666744E-07                              1_GWF-(3,9,9)
 Model                             29          3  6.26779055E-07                              1_GWF-(3,9,9)
 Model                             30          3  4.00186551E-07                              1_GWF-(3,9,9)
 Model                             31          3  2.55515090E-07                              1_GWF-(3,9,9)
 Model                             32          3  1.63142374E-07                              1_GWF-(3,9,9)
 Model                             33          3  1.04163263E-07                              1_GWF-(3,9,9)
 Model                             34          3  6.65068427E-08                              1_GWF-(3,9,9)
 Model                             35          3  4.24633555E-08                              1_GWF-(3,9,9)
 Model                             36          3  2.71125060E-08                              1_GWF-(3,9,9)
 Model                             37          2  1.73124022E-08                              1_GWF-(3,9,9)
 Model                             38          2  1.10536860E-08                              1_GWF-(3,9,9)
 Model                             39          2  7.05463776E-09                              1_GWF-(3,9,9)
 Model                             40          2  4.50573623E-09                              1_GWF-(3,9,9)
 Model                             41          2  2.87801072E-09                              1_GWF-(3,9,9)
 Model                             42          2  1.83671034E-09                              1_GWF-(3,9,9)
 Model                             43          2  1.17357501E-09                             1_GWF-(3,10,9)
 Model                             44          1  7.50418394E-10       *                      1_GWF-(3,9,9)
 Package                           44             1.41286042E-09                   1_GWF-LAK_0-(1)-residual
 Model                             45          1  4.79630557E-10       *                     1_GWF-(3,9,10)
 Package                           45             9.03354213E-10       *           1_GWF-LAK_0-(1)-residual
 ----------------------------------------------------------------------------------------------------------


 45 CALLS TO NUMERICAL SOLUTION IN TIME STEP 11 STRESS PERIOD 1
 229 TOTAL ITERATIONS
 
    Solving:  Stress period:     1    Time step:    12
 

 SLN_1 OUTER ITERATION SUMMARY
 ----------------------------------------------------------------------------------------------------------
                                OUTER      INNER                    STEP   MAXIMUM CHANGE MODEL-(CELLID) OR
 OUTER ITERATION STEP       ITERATION  ITERATION  MAXIMUM CHANGE SUCCESS             MODEL-PACKAGE-(NUMBER)
 ----------------------------------------------------------------------------------------------------------
 Model                              1         11       1.8459298                              1_GWF-(1,1,4)
 Model                              2          9      0.12158746                              1_GWF-(3,9,9)
 Model                              3          9  7.81365122E-02                              1_GWF-(3,9,9)
 Model                              4          9  5.02233674E-02                              1_GWF-(3,9,9)
 Model                              5          9  3.22816610E-02                              1_GWF-(3,9,9)
 Model                              6          9  2.07493648E-02                              1_GWF-(3,9,9)
 Model                              7          9  1.33368425E-02                              1_GWF-(3,9,9)
 Model                              8          8  8.57236749E-03                              1_GWF-(3,9,9)
 Model                              9          8  5.50995740E-03                              1_GWF-(3,9,9)
 Model                             10          8  3.54156742E-03                              1_GWF-(3,9,9)
 Model                             11          8  2.27636901E-03                              1_GWF-(3,9,9)
 Model                             12          7  1.46315298E-03                              1_GWF-(3,9,9)
 Model                             13          7  9.40452263E-04                              1_GWF-(3,9,9)
 Model                             14          7  6.04482518E-04                              1_GWF-(3,9,9)
 Model                             15          7  3.88535507E-04                              1_GWF-(3,9,9)
 Model                             16          6  2.49733996E-04                              1_GWF-(3,9,9)
 Model                             17          6  1.60518321E-04                              1_GWF-(3,9,9)
 Model                             18          6  1.03174304E-04                              1_GWF-(3,9,9)
 Model                             19          6  6.63160264E-05                              1_GWF-(3,9,9)
 Model                             20          6  4.26251022E-05                              1_GWF-(3,9,9)
 Model                             21          5  2.73975916E-05                              1_GWF-(3,9,9)
 Model                             22          5  1.76099956E-05                              1_GWF-(3,9,9)
 Model                             23          5  1.13189525E-05                              1_GWF-(3,9,9)
 Model                             24          5  7.27533599E-06                              1_GWF-(3,9,9)
 Model                             25          4  4.67627629E-06                              1_GWF-(3,9,9)
 Model                             26          4  3.00570625E-06                              1_GWF-(3,9,9)
 Model                             27          4  1.93194110E-06                              1_GWF-(3,9,9)
 Model                             28          4  1.24176900E-06                              1_GWF-(3,9,9)
 Model                             29          4  7.98157075E-07                              1_GWF-(3,9,9)
 Model                             30          3  5.13022485E-07                              1_GWF-(3,9,9)
 Model                             31          3  3.29745760E-07                              1_GWF-(3,9,9)
 Model                             32          3  2.11948048E-07                              1_GWF-(3,9,9)
 Model                             33          3  1.36230824E-07                              1_GWF-(3,9,9)
 Model                             34          3  8.75636204E-08                              1_GWF-(3,9,9)
 Model                             35          3  5.62826727E-08                              1_GWF-(3,9,9)
 Model                             36          3  3.61767150E-08                              1_GWF-(3,9,9)
 Model                             37          2  2.32517436E-08                              1_GWF-(3,9,9)
 Model                             38          2  1.49456270E-08                              1_GWF-(3,9,9)
 Model                             39          2  9.60680779E-09                              1_GWF-(3,9,9)
 Model                             40          2  6.17440321E-09                              1_GWF-(3,9,9)
 Model                             41          2  3.96943278E-09                              1_GWF-(3,9,9)
 Model                             42          2  2.55025157E-09                             1_GWF-(3,10,9)
 Model                             43          2  1.63994684E-09                              1_GWF-(3,8,9)
 Model                             44          2  1.05579545E-09                              1_GWF-(3,9,9)
 Model                             45          1  6.78326728E-10       *                     1_GWF-(3,10,9)
 Package                           45             1.30418200E-09                   1_GWF-LAK_0-(1)-residual
 Model                             46          1  4.36600089E-10       *                      1_GWF-(3,9,9)
 Package                           46             8.38899562E-10       *           1_GWF-LAK_0-(1)-residual
 ----------------------------------------------------------------------------------------------------------


 46 CALLS TO NUMERICAL SOLUTION IN TIME STEP 12 STRESS PERIOD 1
 234 TOTAL ITERATIONS
 
    Solving:  Stress period:     1    Time step:    13
 

 SLN_1 OUTER ITERATION SUMMARY
 ----------------------------------------------------------------------------------------------------------
                                OUTER      INNER                    STEP   MAXIMUM CHANGE MODEL-(CELLID) OR
 OUTER ITERATION STEP       ITERATION  ITERATION  MAXIMUM CHANGE SUCCESS             MODEL-PACKAGE-(NUMBER)
 ----------------------------------------------------------------------------------------------------------
 Model                              1         12       1.7506067                              1_GWF-(1,1,4)
 Model                              2          9      0.12917551                              1_GWF-(3,9,9)
 Model                              3          9  8.35533712E-02                              1_GWF-(3,9,9)
 Model                              4          9  5.40593548E-02                              1_GWF-(3,9,9)
 Model                              5          9  3.49764546E-02                              1_GWF-(3,9,9)
 Model                              6          9  2.26297360E-02                              1_GWF-(3,9,9)
 Model                              7          9  1.46413931E-02                              1_GWF-(3,9,9)
 Model                              8          9  9.47294027E-03                              1_GWF-(3,9,9)
 Model                              9          8  6.12896112E-03                              1_GWF-(3,9,9)
 Model                             10          8  3.96541568E-03                              1_GWF-(3,9,9)
 Model                             11          8  2.56560879E-03                              1_GWF-(3,9,9)
 Model                             12          8  1.65993874E-03                              1_GWF-(3,9,9)
 Model                             13          7  1.07397365E-03                              1_GWF-(3,9,9)
 Model                             14          7  6.94856548E-04                              1_GWF-(3,9,9)
 Model                             15          7  4.49569314E-04                              1_GWF-(3,9,9)
 Model                             16          7  2.90869476E-04                              1_GWF-(3,9,9)
 Model                             17          6  1.88191338E-04                              1_GWF-(3,9,9)
 Model                             18          6  1.21759008E-04                              1_GWF-(3,9,9)
 Model                             19          6  7.87775660E-05                              1_GWF-(3,9,9)
 Model                             20          6  5.09687582E-05                              1_GWF-(3,9,9)
 Model                             21          6  3.29765694E-05                              1_GWF-(3,9,9)
 Model                             22          5  2.13357043E-05                              1_GWF-(3,9,9)
 Model                             23          5  1.38041103E-05                              1_GWF-(3,9,9)
 Model                             24          5  8.93119952E-06                              1_GWF-(3,9,9)
 Model                             25          4  5.77844901E-06                              1_GWF-(3,9,9)
 Model                             26          4  3.73862972E-06                              1_GWF-(3,9,9)
 Model                             27          4  2.41887876E-06                              1_GWF-(3,9,9)
 Model                             28          4  1.56500597E-06                              1_GWF-(3,9,9)
 Model                             29          4  1.01255259E-06                              1_GWF-(3,9,9)
 Model                             30          4  6.55117859E-07                              1_GWF-(3,9,9)
 Model                             31          3  4.23857017E-07                              1_GWF-(3,9,9)
 Model                             32          3  2.74233869E-07                              1_GWF-(3,9,9)
 Model                             33          3  1.77428731E-07                              1_GWF-(3,9,9)
 Model                             34          3  1.14796023E-07                              1_GWF-(3,9,9)
 Model                             35          3  7.42718953E-08                              1_GWF-(3,9,9)
 Model                             36          3  4.80550000E-08                              1_GWF-(3,9,9)
 Model                             37          3  3.10916306E-08                              1_GWF-(3,9,9)
 Model                             38          2  2.01153938E-08                              1_GWF-(3,9,9)
 Model                             39          2  1.30142155E-08                              1_GWF-(3,9,9)
 Model                             40          2  8.42055670E-09                              1_GWF-(3,9,9)
 Model                             41          2  5.44723378E-09                              1_GWF-(3,9,9)
 Model                             42          2  3.52683571E-09                              1_GWF-(3,9,9)
 Model                             43          2  2.28062902E-09                              1_GWF-(3,9,9)
[...]
 Model                            111          1  3.48393314E-10       *                    1_GWF-(3,10,10)
 Package                          111             3.81704787E-09                   1_GWF-LAK_0-(1)-residual
 Model                            112          1  3.10819814E-10       *                     1_GWF-(4,9,10)
 Package                          112             3.39794364E-09                   1_GWF-LAK_0-(1)-residual
 Model                            113          1  2.77282197E-10       *                      1_GWF-(3,9,9)
 Package                          113             3.03298952E-09                   1_GWF-LAK_0-(1)-residual
 Model                            114          1  2.46274112E-10       *                     1_GWF-(3,10,8)
 Package                          114             2.69055800E-09                   1_GWF-LAK_0-(1)-residual
 Model                            115          1  2.18676632E-10       *                      1_GWF-(3,8,9)
 Package                          115             2.39641956E-09                   1_GWF-LAK_0-(1)-residual
 Model                            116          1  1.95569783E-10       *                      1_GWF-(4,8,9)
 Package                          116             2.13807635E-09                   1_GWF-LAK_0-(1)-residual
 Model                            117          1  1.74424031E-10       *                      1_GWF-(4,8,8)
 Package                          117             1.89366774E-09                   1_GWF-LAK_0-(1)-residual
 Model                            118          1  1.54841473E-10       *                    1_GWF-(3,10,10)
 Package                          118             1.68835631E-09                   1_GWF-LAK_0-(1)-residual
 Model                            119          1  1.38470568E-10       *                     1_GWF-(3,10,9)
 Package                          119             1.50496106E-09                   1_GWF-LAK_0-(1)-residual
 Model                            120          1  1.23719701E-10       *                      1_GWF-(4,9,8)
 Package                          120             1.33517909E-09                   1_GWF-LAK_0-(1)-residual
 Model                            121          1  1.09537268E-10       *                     1_GWF-(3,9,10)
 Package                          121             1.18986790E-09                   1_GWF-LAK_0-(1)-residual
 Model                            122          1  9.90496574E-11       *                      1_GWF-(4,9,8)
 Package                          122             1.06030582E-09                   1_GWF-LAK_0-(1)-residual
 Model                            123          1  8.67999006E-11       *                     1_GWF-(4,8,10)
 Package                          123             9.41000730E-10       *           1_GWF-LAK_0-(1)-residual
 ----------------------------------------------------------------------------------------------------------


 123 CALLS TO NUMERICAL SOLUTION IN TIME STEP 99 STRESS PERIOD 1
 659 TOTAL ITERATIONS
 
    Solving:  Stress period:     1    Time step:   100
 

 SLN_1 OUTER ITERATION SUMMARY
 ----------------------------------------------------------------------------------------------------------
                                OUTER      INNER                    STEP   MAXIMUM CHANGE MODEL-(CELLID) OR
 OUTER ITERATION STEP       ITERATION  ITERATION  MAXIMUM CHANGE SUCCESS             MODEL-PACKAGE-(NUMBER)
 ----------------------------------------------------------------------------------------------------------
 Model                              1         12  3.14612471E-04                             1_GWF-(1,9,12)
 Model                              2         11  1.12266038E-04                              1_GWF-(3,9,9)
 Model                              3         11  9.99132853E-05                              1_GWF-(3,9,9)
 Model                              4         11  8.89197284E-05                              1_GWF-(3,9,9)
 Model                              5         11  7.91358058E-05                              1_GWF-(3,9,9)
 Model                              6         11  7.04284109E-05                              1_GWF-(3,9,9)
 Model                              7         11  6.26791030E-05                              1_GWF-(3,9,9)
 Model                              8         11  5.57824550E-05                              1_GWF-(3,9,9)
 Model                              9         11  4.96446537E-05                              1_GWF-(3,9,9)
 Model                             10         11  4.41821985E-05                              1_GWF-(3,9,9)
 Model                             11         11  3.93207854E-05                              1_GWF-(3,9,9)
 Model                             12         11  3.49942772E-05                              1_GWF-(3,9,9)
 Model                             13         11  3.11438174E-05                              1_GWF-(3,9,9)
 Model                             14         10  2.77170286E-05                              1_GWF-(3,9,9)
 Model                             15         10  2.46672930E-05                              1_GWF-(3,9,9)
 Model                             16         10  2.19531240E-05                              1_GWF-(3,9,9)
 Model                             17         10  1.95375941E-05                              1_GWF-(3,9,9)
 Model                             18         10  1.73878528E-05                              1_GWF-(3,9,9)
 Model                             19         10  1.54746504E-05                              1_GWF-(3,9,9)
 Model                             20         10  1.37719532E-05                              1_GWF-(3,9,9)
 Model                             21         10  1.22566120E-05                              1_GWF-(3,9,9)
 Model                             22         10  1.09080039E-05                              1_GWF-(3,9,9)
 Model                             23         10  9.70778413E-06                              1_GWF-(3,9,9)
 Model                             24         10  8.63962399E-06                              1_GWF-(3,9,9)
 Model                             25         10  7.68899770E-06                              1_GWF-(3,9,9)
 Model                             26          9  6.84296873E-06                              1_GWF-(3,9,9)
 Model                             27          9  6.09002913E-06                              1_GWF-(3,9,9)
 Model                             28          8  5.41993697E-06                              1_GWF-(3,9,9)
 Model                             29          8  4.82357132E-06                              1_GWF-(3,9,9)
 Model                             30          8  4.29282895E-06                              1_GWF-(3,9,9)
 Model                             31          8  3.82048509E-06                              1_GWF-(3,9,9)
 Model                             32          8  3.40011232E-06                              1_GWF-(3,9,9)
 Model                             33          8  3.02599361E-06                              1_GWF-(3,9,9)
 Model                             34          8  2.69303914E-06                              1_GWF-(3,9,9)
 Model                             35          8  2.39672346E-06                              1_GWF-(3,9,9)
 Model                             36          8  2.13300797E-06                              1_GWF-(3,9,9)
 Model                             37          8  1.89831127E-06                              1_GWF-(3,9,9)
 Model                             38          7  1.68943848E-06                              1_GWF-(3,9,9)
 Model                             39          7  1.50354646E-06                              1_GWF-(3,9,9)
 Model                             40          7  1.33810858E-06                              1_GWF-(3,9,9)
 Model                             41          7  1.19087389E-06                              1_GWF-(3,9,9)
 Model                             42          7  1.05984176E-06                              1_GWF-(3,9,9)
 Model                             43          7  9.43226979E-07                              1_GWF-(3,9,9)
 Model                             44          7  8.39443402E-07                              1_GWF-(3,9,9)
 Model                             45          7  7.47076967E-07                              1_GWF-(3,9,9)
 Model                             46          7  6.64877746E-07                              1_GWF-(3,9,9)
 Model                             47          7  5.91719157E-07                              1_GWF-(3,9,9)
 Model                             48          7  5.26611075E-07                              1_GWF-(3,9,9)
 Model                             49          7  4.68668787E-07                              1_GWF-(3,9,9)
 Model                             50          7  4.17099614E-07                              1_GWF-(3,9,9)
 Model                             51          6  3.71206454E-07                              1_GWF-(3,9,9)
 Model                             52          6  3.30357921E-07                              1_GWF-(3,9,9)
 Model                             53          6  2.94009226E-07                              1_GWF-(3,9,9)
 Model                             54          5  2.61658045E-07                              1_GWF-(3,9,9)
 Model                             55          5  2.32857332E-07                              1_GWF-(3,9,9)
 Model                             56          5  2.07234933E-07                              1_GWF-(3,9,9)
 Model                             57          5  1.84434185E-07                              1_GWF-(3,9,9)
 Model                             58          5  1.64142932E-07                              1_GWF-(3,9,9)
 Model                             59          5  1.46082357E-07                              1_GWF-(3,9,9)
 Model                             60          5  1.30011472E-07                              1_GWF-(3,9,9)
 Model                             61          5  1.15706598E-07                              1_GWF-(3,9,9)
 Model                             62          4  1.02975321E-07                              1_GWF-(3,9,9)
 Model                             63          4  9.16497243E-08                              1_GWF-(3,9,9)
 Model                             64          4  8.15616659E-08                              1_GWF-(3,9,9)
 Model                             65          4  7.25905522E-08                              1_GWF-(3,9,9)
 Model                             66          4  6.46020624E-08                              1_GWF-(3,9,9)
 Model                             67          4  5.74963508E-08                              1_GWF-(3,9,9)
 Model                             68          4  5.11676888E-08                              1_GWF-(3,9,9)
 Model                             69          4  4.55402471E-08                              1_GWF-(3,9,9)
 Model                             70          4  4.05295566E-08                              1_GWF-(3,9,9)
 Model                             71          4  3.60714409E-08                              1_GWF-(3,9,9)
 Model                             72          3  3.21010134E-08                              1_GWF-(3,9,9)
 Model                             73          3  2.85541262E-08                              1_GWF-(3,9,9)
 Model                             74          3  2.54132999E-08                              1_GWF-(3,9,9)
 Model                             75          3  2.26197017E-08                              1_GWF-(3,9,9)
 Model                             76          3  2.01337969E-08                              1_GWF-(3,9,9)
 Model                             77          3  1.79176993E-08                              1_GWF-(3,9,9)
 Model                             78          3  1.59487570E-08                              1_GWF-(3,9,9)
 Model                             79          3  1.41929490E-08                              1_GWF-(3,9,9)
 Model                             80          3  1.26360646E-08                              1_GWF-(3,9,9)
 Model                             81          3  1.12436851E-08                              1_GWF-(3,9,9)
 Model                             82          3  1.00067439E-08                              1_GWF-(3,9,9)
 Model                             83          3  8.90867113E-09                              1_GWF-(3,9,9)
 Model                             84          3  7.92840638E-09                              1_GWF-(3,9,9)
 Model                             85          3  7.05350089E-09                              1_GWF-(3,9,9)
 Model                             86          3  6.27952090E-09                              1_GWF-(3,9,9)
 Model                             87          2  5.59333557E-09                              1_GWF-(5,9,9)
 Model                             88          2  4.97254860E-09                              1_GWF-(3,9,9)
 Model                             89          2  4.41497150E-09                              1_GWF-(3,9,9)
 Model                             90          2  3.92688548E-09                              1_GWF-(3,9,9)
 Model                             91          2  3.49555762E-09                              1_GWF-(3,9,9)
 Model                             92          2  3.11140980E-09                              1_GWF-(3,9,9)
 Model                             93          2  2.77222512E-09                              1_GWF-(3,9,9)
 Model                             94          2  2.46691911E-09                              1_GWF-(3,8,9)
 Model                             95          2  2.19867502E-09                             1_GWF-(3,9,10)
 Model                             96          2  1.95876737E-09                              1_GWF-(3,9,9)
 Model                             97          2  1.74293291E-09                              1_GWF-(3,8,9)
 Model                             98          2  1.55233693E-09                              1_GWF-(3,9,9)
 Model                             99          2  1.38339828E-09                              1_GWF-(4,9,8)
 Model                            100          2  1.23387167E-09                              1_GWF-(4,9,9)
 Model                            101          2  1.09542952E-09                              1_GWF-(3,9,9)
 Model                            102          1  9.78047865E-10       *                     1_GWF-(4,8,10)
 Package                          102             1.08373744E-08                   1_GWF-LAK_0-(1)-residual
 Model                            103          1  8.66947403E-10       *                      1_GWF-(5,9,8)
 Package                          103             9.64480706E-09                   1_GWF-LAK_0-(1)-residual
 Model                            104          1  7.71166242E-10       *                      1_GWF-(4,9,9)
 Package                          104             8.59318654E-09                   1_GWF-LAK_0-(1)-residual
 Model                            105          1  6.84963197E-10       *                      1_GWF-(4,9,8)
 Package                          105             7.64804695E-09                   1_GWF-LAK_0-(1)-residual
 Model                            106          1  6.10526740E-10       *                      1_GWF-(3,8,9)
 Package                          106             6.82813683E-09                   1_GWF-LAK_0-(1)-residual
 Model                            107          1  5.44304157E-10       *                     1_GWF-(3,10,9)
 Package                          107             6.09298759E-09                   1_GWF-LAK_0-(1)-residual
 Model                            108          1  4.86352292E-10       *                      1_GWF-(3,8,9)
 Package                          108             5.43265837E-09                   1_GWF-LAK_0-(1)-residual
 Model                            109          1  4.32748948E-10       *                     1_GWF-(3,9,10)
 Package                          109             4.83122643E-09                   1_GWF-LAK_0-(1)-residual
 Model                            110          1  3.87046839E-10       *                      1_GWF-(5,9,9)
 Package                          110             4.30861916E-09                   1_GWF-LAK_0-(1)-residual
 Model                            111          1  3.44385853E-10       *                      1_GWF-(3,8,9)
 Package                          111             3.83408169E-09                   1_GWF-LAK_0-(1)-residual
 Model                            112          1  3.07238679E-10       *                     1_GWF-(4,9,10)
 Package                          112             3.42240724E-09                   1_GWF-LAK_0-(1)-residual
 Model                            113          1  2.73161049E-10       *                      1_GWF-(3,8,9)
 Package                          113             3.04567478E-09                   1_GWF-LAK_0-(1)-residual
 Model                            114          1  2.44710918E-10       *                      1_GWF-(5,8,9)
 Package                          114             2.72401508E-09                   1_GWF-LAK_0-(1)-residual
 Model                            115          1  2.18506102E-10       *                    1_GWF-(3,10,10)
 Package                          115             2.42301125E-09                   1_GWF-LAK_0-(1)-residual
 Model                            116          1  1.93892902E-10       *                     1_GWF-(3,10,9)
 Package                          116             2.16422875E-09                   1_GWF-LAK_0-(1)-residual
 Model                            117          1  1.72121872E-10       *                      1_GWF-(3,9,9)
 Package                          117             1.92194807E-09                   1_GWF-LAK_0-(1)-residual
 Model                            118          1  1.55381485E-10       *                      1_GWF-(4,9,8)
 Package                          118             1.72040469E-09                   1_GWF-LAK_0-(1)-residual
 Model                            119          1  1.37163170E-10       *                    1_GWF-(3,10,10)
 Package                          119             1.53405024E-09                   1_GWF-LAK_0-(1)-residual
 Model                            120          1  1.23890231E-10       *                     1_GWF-(3,9,10)
 Package                          120             1.36284776E-09                   1_GWF-LAK_0-(1)-residual
 Model                            121          1  1.09849907E-10       *                     1_GWF-(4,9,11)
 Package                          121             1.21265152E-09                   1_GWF-LAK_0-(1)-residual
 Model                            122          1  9.77706804E-11       *                     1_GWF-(3,9,10)
 Package                          122             1.07962387E-09                   1_GWF-LAK_0-(1)-residual
 Model                            123          1  8.79083473E-11       *                      1_GWF-(5,9,9)
 Package                          123             9.61347205E-10       *           1_GWF-LAK_0-(1)-residual
 ----------------------------------------------------------------------------------------------------------


 123 CALLS TO NUMERICAL SOLUTION IN TIME STEP 100 STRESS PERIOD 1
 648 TOTAL ITERATIONS

 MEMORY MANAGER TOTAL STORAGE BY DATA TYPE, IN MEGABYTES
 -------------------------------
                    ALLOCATED   
 DATA TYPE           MEMORY     
 -------------------------------
 Character        9.60000000E-03
 Logical          4.40000000E-05
 Integer          0.37842400    
 Real             0.84404800    
 -------------------------------
 Total            1.2321160     
 Virtual          0.0000000     
 -------------------------------


 
 Run end date and time (yyyy/mm/dd hh:mm:ss): 2025/11/13 16:06:24
 Elapsed run time:  9.826 Seconds
 Normal termination of simulation.
