                                   MODFLOW 6
                U.S. GEOLOGICAL SURVEY MODULAR HYDROLOGIC MODEL
                            VERSION 6.5.0 05/23/2024

   MODFLOW 6 compiled Jun 21 2024 02:57:23 with Intel(R) Fortran Intel(R) 64
   Compiler Classic for applications running on Intel(R) 64, Version 2021.7.0
                             Build 20220726_000000

This software has been approved for release by the U.S. Geological 
Survey (USGS). Although the software has been subjected to rigorous 
review, the USGS reserves the right to update the software as needed 
pursuant to further analysis and review. No warranty, expressed or 
implied, is made by the USGS or the U.S. Government as to the 
functionality of the software and related material nor shall the 
fact of release constitute any such warranty. Furthermore, the 
software is released on condition that neither the USGS nor the U.S. 
Government shall be held liable for any damages resulting from its 
authorized or unauthorized use. Also refer to the USGS Water 
Resources Software User Rights Notice for complete use, copyright, 
and distribution information.


As a work of the United States Government, this USGS product is 
in the public domain within the United States. You can copy, 
modify, distribute, and perform the work, even for commercial 
purposes, all without asking permission. Additionally, USGS 
waives copyright and related rights in the work worldwide 
through CC0 1.0 Universal Public Domain Dedication 
(https://creativecommons.org/publicdomain/zero/1.0/).

The following GNU Lesser General Public License (LGPL) libraries
are used in this USGS product:

    SPARSKIT version 2.0
      ilut, luson, and qsplit 
      (https://www-users.cse.umn.edu/~saad/software/SPARSKIT/)

    RCM - Reverse Cuthill McKee Ordering
      (https://people.math.sc.edu/Burkardt/f_src/rcm/rcm.html)

    BLAS - Basic Linear Algebra Subprograms Level 1
      (https://people.math.sc.edu/Burkardt/f_src/blas1_d/blas1_d.html)

    SPARSEKIT - Sparse Matrix Utility Package
      amux, dperm, dvperm, rperm, and cperm
      (https://people.sc.fsu.edu/~jburkardt/f77_src/sparsekit/sparsekit.html)

The following BSD-3 License libraries are used in this USGS product:

    Modern Fortran DAG Library
      Copyright (c) 2018, Jacob Williams
      All rights reserved.
      (https://github.com/jacobwilliams/daglib)

MODFLOW 6 compiler options: /O2 /heap-arrays:0 /fpe:0 /traceback /nologo /fpp
/c /module:win64\mod_mf6\ /object:win64\obj_mf6\

System command used to initiate simulation:
C:\Users\gross.DESKTOP-AIRQM2M\anaconda3\envs\gmdsitut\Scripts\mf6.exe

MODFLOW was compiled using uniform precision.

Real Variables
  KIND: 8
  TINY (smallest non-zero value):    2.225074-308
  HUGE (largest value):    1.797693+308
  PRECISION: 15
  SIZE IN BITS: 64

Integer Variables
  KIND: 4
  HUGE (largest value): 2147483647
  SIZE IN BITS: 32

Long Integer Variables
  KIND: 8
  HUGE (largest value): 9223372036854775807
  SIZE IN BITS: 64

Logical Variables
  KIND: 4
  SIZE IN BITS: 32
 

 OPENED mfsim.nam
 FILE TYPE:NAM6               UNIT 1001   STATUS:OLD                 
 FORMAT:FORMATTED              ACCESS:SEQUENTIAL          
 ACTION:READ                

 # File generated by Flopy version 3.8.2 on 11/13/2025 at 14:57:50.

 OPENED e15.tdis
 FILE TYPE:TDIS6              UNIT 1002   STATUS:OLD                 
 FORMAT:FORMATTED              ACCESS:SEQUENTIAL          
 ACTION:READ                

 # File generated by Flopy version 3.8.2 on 11/13/2025 at 14:57:50.

 OPENED e15.nam
 FILE TYPE:GWF6               UNIT 1003   STATUS:OLD                 
 FORMAT:FORMATTED              ACCESS:SEQUENTIAL          
 ACTION:READ                

 # File generated by Flopy version 3.8.2 on 11/13/2025 at 14:57:50.

 OPENED e15.dis
 FILE TYPE:DIS6               UNIT 1004   STATUS:OLD                 
 FORMAT:FORMATTED              ACCESS:SEQUENTIAL          
 ACTION:READ                

 # File generated by Flopy version 3.8.2 on 11/13/2025 at 14:57:50.

 OPENED e15.npf
 FILE TYPE:NPF6               UNIT 1005   STATUS:OLD                 
 FORMAT:FORMATTED              ACCESS:SEQUENTIAL          
 ACTION:READ                

 # File generated by Flopy version 3.8.2 on 11/13/2025 at 14:57:50.

 OPENED e15.sto
 FILE TYPE:STO6      UNIT 1006   STATUS:OLD                 
 FORMAT:FORMATTED              ACCESS:SEQUENTIAL          
 ACTION:READ                


 OPENED e15.ic
 FILE TYPE:IC6                UNIT 1007   STATUS:OLD                 
 FORMAT:FORMATTED              ACCESS:SEQUENTIAL          
 ACTION:READ                

 # File generated by Flopy version 3.8.2 on 11/13/2025 at 14:57:50.

 OPENED e15.mvr
 FILE TYPE:MVR6      UNIT 1008   STATUS:OLD                 
 FORMAT:FORMATTED              ACCESS:SEQUENTIAL          
 ACTION:READ                


 OPENED e15.oc
 FILE TYPE:OC6       UNIT 1009   STATUS:OLD                 
 FORMAT:FORMATTED              ACCESS:SEQUENTIAL          
 ACTION:READ                


 OPENED e15.gwf.obs
 FILE TYPE:OBS6      UNIT 1010   STATUS:OLD                 
 FORMAT:FORMATTED              ACCESS:SEQUENTIAL          
 ACTION:READ                


 OPENED e15.rcha
 FILE TYPE:RCH6               UNIT 1012   STATUS:OLD                 
 FORMAT:FORMATTED              ACCESS:SEQUENTIAL          
 ACTION:READ                

 # File generated by Flopy version 3.8.2 on 11/13/2025 at 14:57:50.

 OPENED e15.evta
 FILE TYPE:EVT6               UNIT 1014   STATUS:OLD                 
 FORMAT:FORMATTED              ACCESS:SEQUENTIAL          
 ACTION:READ                

 # File generated by Flopy version 3.8.2 on 11/13/2025 at 14:57:50.

 OPENED e15.chd
 FILE TYPE:CHD6               UNIT 1015   STATUS:OLD                 
 FORMAT:FORMATTED              ACCESS:SEQUENTIAL          
 ACTION:READ                

 # File generated by Flopy version 3.8.2 on 11/13/2025 at 14:57:50.

 OPENED e15.sfr
 FILE TYPE:SFR6      UNIT 1016   STATUS:OLD                 
 FORMAT:FORMATTED              ACCESS:SEQUENTIAL          
 ACTION:READ                


 OPENED e15.lak
 FILE TYPE:LAK6      UNIT 1017   STATUS:OLD                 
 FORMAT:FORMATTED              ACCESS:SEQUENTIAL          
 ACTION:READ                


 READING SIMULATION OPTIONS
    MAXIMUM NUMBER OF ERRORS THAT WILL BE STORED IS 1000
 END OF SIMULATION OPTIONS

 READING SIMULATION TIMING

 TDIS -- TEMPORAL DISCRETIZATION PACKAGE,
 VERSION 1 : 11/13/2014 - INPUT READ FROM MEMPATH: __INPUT__/SIM/TDIS                                
 PROCESSING TDIS OPTIONS
    SIMULATION TIME UNIT IS DAYS
 END OF TDIS OPTIONS
 PROCESSING TDIS DIMENSIONS
    1 STRESS PERIOD(S) IN SIMULATION
 END OF TDIS DIMENSIONS
 PROCESSING TDIS PERIODDATA


 STRESS PERIOD     LENGTH       TIME STEPS     MULTIPLIER FOR DELT
 ----------------------------------------------------------------------------
        1         1500.000        200                    1.005
 END OF TDIS PERIODDATA
 END OF SIMULATION TIMING

 READING SIMULATION MODELS
    GWF6 model 1 will be created
 END OF SIMULATION MODELS

 READING SIMULATION EXCHANGES
 END OF SIMULATION EXCHANGES

 READING SOLUTIONGROUP

 Creating solution: SLN_1           

 OPENED e15.ims
 FILE TYPE:IMS   UNIT 1019   STATUS:OLD                 
 FORMAT:FORMATTED              ACCESS:SEQUENTIAL          
 ACTION:READ                

 END OF SOLUTIONGROUP

PROCESSING MODEL CONNECTIONS

 IMS -- ITERATIVE MODEL SOLUTION PACKAGE, VERSION 6, 4/28/2017
         INPUT READ FROM UNIT 1019
 # File generated by Flopy version 3.8.2 on 11/13/2025 at 14:57:50.

 PROCESSING IMS OPTIONS
 END OF IMS OPTIONS

 PROCESSING IMS NONLINEAR
 END OF IMS NONLINEAR DATA
 ***UNDER-RELAXATION WILL NOT BE USED***
 

 PROCESSING LINEAR DATA
 END OF LINEAR DATA
 ***IMS LINEAR SOLVER WILL BE USED***

 IMSLINEAR -- UNSTRUCTURED LINEAR SOLUTION PACKAGE, VERSION 8, 04/28/2017
 An asymmetric matrix will be solved

 OUTER ITERATION CONVERGENCE CRITERION    (DVCLOSE) =    0.100000E-08
 MAXIMUM NUMBER OF OUTER ITERATIONS        (MXITER) = 500
 SOLVER PRINTOUT INDEX                     (IPRIMS) = 1
 NONLINEAR ITERATION METHOD            (NONLINMETH) = 0
 LINEAR SOLUTION METHOD                   (LINMETH) = 1

       SOLUTION BY THE BICONJUGATE-GRADIENT STABILIZED METHOD
 ------------------------------------------------------------------
 MAXIMUM OF 500 CALLS OF SOLUTION ROUTINE
 MAXIMUM OF 100 INTERNAL ITERATIONS PER CALL TO SOLUTION ROUTINE
 LINEAR ACCELERATION METHOD            = BCGS      
 MATRIX PRECONDITIONING TYPE           = INCOMPLETE LU       
 MATRIX SCALING APPROACH               = NO SCALING          
 MATRIX REORDERING APPROACH            = ORIGINAL ORDERING        
 NUMBER OF ORTHOGONALIZATIONS          = 0
 HEAD CHANGE CRITERION FOR CLOSURE     =    0.10000E-08
 RESIDUAL CHANGE CRITERION FOR CLOSURE =    0.10000E-05
 RESIDUAL CONVERGENCE OPTION           = 1
 RESIDUAL CONVERGENCE NORM             = INFINITY NORM S 
 RELAXATION FACTOR                     =    0.00000E+00



 
    Solving:  Stress period:     1    Time step:     1
 
1
 STRESS PERIOD NO. 1, LENGTH =   1500.000    
 ------------------------------------------
 NUMBER OF TIME STEPS = 200
 MULTIPLIER FOR DELT =     1.005
 INITIAL TIME STEP SIZE =   4.382077    

 SLN_1 OUTER ITERATION SUMMARY
 ----------------------------------------------------------------------------------------------------------
                                OUTER      INNER                    STEP   MAXIMUM CHANGE MODEL-(CELLID) OR
 OUTER ITERATION STEP       ITERATION  ITERATION  MAXIMUM CHANGE SUCCESS             MODEL-PACKAGE-(NUMBER)
 ----------------------------------------------------------------------------------------------------------
 Model                              1          7       6.2284068                              1_GWF-(3,9,9)
 Model                              2          6       1.0030495                              1_GWF-(3,9,9)
 Model                              3          6       1.6137101                             1_GWF-(3,19,9)
 Model                              4          6      0.60113253                             1_GWF-(3,19,9)
 Model                              5          5      0.12511887                             1_GWF-(3,19,9)
 Model                              6          5  2.16720638E-02                             1_GWF-(3,19,9)
 Model                              7          5  3.44209971E-03                             1_GWF-(3,19,9)
 Model                              8          4  5.20236170E-04                             1_GWF-(3,19,9)
 Model                              9          4  7.61786813E-05                             1_GWF-(3,19,9)
 Model                             10          4  1.09165605E-05                             1_GWF-(3,19,9)
 Model                             11          3  1.54041848E-06                             1_GWF-(3,19,9)
 Model                             12          3  2.14908667E-07                             1_GWF-(3,19,9)
 Model                             13          2  2.97269054E-08                             1_GWF-(3,19,9)
 Model                             14          2  4.08610390E-09                             1_GWF-(3,19,9)
 Model                             15          1  5.58799229E-10       *                     1_GWF-(3,18,9)
 Package                           15            -1.23339634E-05                    1_GWF-SFR-1-(17)-inflow
 Model                             16          1  7.80318032E-11       *                     1_GWF-(3,18,9)
 Package                           16            -1.68627284E-06                    1_GWF-SFR-1-(17)-inflow
 Model                             17          1  1.17523768E-11       *                    1_GWF-(3,21,10)
 Package                           17            -2.29614018E-07                    1_GWF-SFR-1-(17)-inflow
 Model                             18          1 -5.92592642E-12       *                     1_GWF-(5,2,11)
 Package                           18            -3.13234685E-08                    1_GWF-SFR-1-(17)-inflow
 Model                             19          1  6.53699317E-12       *                      1_GWF-(4,2,3)
 Package                           19            -4.07786243E-09                    1_GWF-SFR-1-(17)-inflow
 Model                             20          1 -6.13908924E-12       *                    1_GWF-(4,16,12)
 Package                           20            -5.22384298E-10       *            1_GWF-SFR-1-(17)-inflow
 ----------------------------------------------------------------------------------------------------------


 20 CALLS TO NUMERICAL SOLUTION IN TIME STEP 1 STRESS PERIOD 1
 68 TOTAL ITERATIONS
 
    Solving:  Stress period:     1    Time step:     2
 

 SLN_1 OUTER ITERATION SUMMARY
 ----------------------------------------------------------------------------------------------------------
                                OUTER      INNER                    STEP   MAXIMUM CHANGE MODEL-(CELLID) OR
 OUTER ITERATION STEP       ITERATION  ITERATION  MAXIMUM CHANGE SUCCESS             MODEL-PACKAGE-(NUMBER)
 ----------------------------------------------------------------------------------------------------------
 Model                              1          7      -4.5881066                             1_GWF-(3,19,9)
 Model                              2          6      0.73982917                            1_GWF-(1,14,10)
 Model                              3          6       1.0781330                             1_GWF-(3,19,9)
 Model                              4          5      0.10390396                            1_GWF-(1,22,10)
 Model                              5          5 -5.79991320E-03                             1_GWF-(3,19,9)
 Model                              6          5 -2.88289107E-03                             1_GWF-(3,19,9)
 Model                              7          4 -7.13868658E-04                             1_GWF-(3,19,9)
 Model                              8          4 -1.46750426E-04                             1_GWF-(3,19,9)
 Model                              9          4 -2.76497100E-05                             1_GWF-(3,19,9)
 Model                             10          3 -4.95514466E-06                             1_GWF-(3,19,9)
 Model                             11          3 -8.59971991E-07                             1_GWF-(3,19,9)
 Model                             12          3 -1.45996268E-07                             1_GWF-(3,19,9)
 Model                             13          2 -2.43976643E-08                             1_GWF-(3,19,9)
 Model                             14          2 -4.02873468E-09                             1_GWF-(3,19,9)
 Model                             15          1 -6.59980515E-10       *                    1_GWF-(3,18,10)
 Package                           15             8.99370860E-06                    1_GWF-SFR-1-(17)-inflow
 Model                             16          1 -1.08883569E-10       *                    1_GWF-(3,20,10)
 Package                           16             1.47221081E-06                    1_GWF-SFR-1-(17)-inflow
 Model                             17          1 -1.86162197E-11       *                    1_GWF-(2,17,10)
 Package                           17             2.39332652E-07                    1_GWF-SFR-1-(17)-inflow
 Model                             18          1 -6.65068001E-12       *                    1_GWF-(5,25,14)
 Package                           18             3.87922988E-08                    1_GWF-SFR-1-(17)-inflow
 Model                             19          1  6.83542112E-12       *                     1_GWF-(5,16,4)
 Package                           19             6.13753393E-09                    1_GWF-SFR-1-(17)-inflow
 Model                             20          1  6.86384283E-12       *                     1_GWF-(5,22,4)
 Package                           20             9.95852205E-10       *            1_GWF-SFR-1-(17)-inflow
 ----------------------------------------------------------------------------------------------------------


 20 CALLS TO NUMERICAL SOLUTION IN TIME STEP 2 STRESS PERIOD 1
 65 TOTAL ITERATIONS
 
    Solving:  Stress period:     1    Time step:     3
 

 SLN_1 OUTER ITERATION SUMMARY
 ----------------------------------------------------------------------------------------------------------
                                OUTER      INNER                    STEP   MAXIMUM CHANGE MODEL-(CELLID) OR
 OUTER ITERATION STEP       ITERATION  ITERATION  MAXIMUM CHANGE SUCCESS             MODEL-PACKAGE-(NUMBER)
 ----------------------------------------------------------------------------------------------------------
 Model                              1          7       3.0737136                              1_GWF-(1,3,2)
 Model                              2          6      0.48376093                            1_GWF-(1,14,10)
 Model                              3          6      0.61283055                             1_GWF-(3,19,9)
 Model                              4          5  7.40560846E-02                             1_GWF-(3,19,9)
 Model                              5          5  7.71235886E-03                             1_GWF-(3,19,9)
 Model                              6          4  7.48416827E-04                            1_GWF-(1,22,10)
 Model                              7          4  5.02677842E-05                            1_GWF-(1,22,10)
 Model                              8          4 -2.31583993E-05                             1_GWF-(3,19,9)
 Model                              9          3 -6.80992817E-06                             1_GWF-(3,19,9)
 Model                             10          3 -1.60702224E-06                             1_GWF-(3,19,9)
 Model                             11          3 -3.43850090E-07                             1_GWF-(3,19,9)
 Model                             12          2 -6.96274043E-08                             1_GWF-(3,19,9)
 Model                             13          2 -1.36139420E-08                             1_GWF-(3,19,9)
 Model                             14          2 -2.59797162E-09                             1_GWF-(3,19,8)
 Model                             15          1 -4.89308150E-10       *                     1_GWF-(3,19,9)
 Package                           15             4.55520527E-06                    1_GWF-SFR-1-(17)-inflow
 Model                             16          1 -9.19015974E-11       *                     1_GWF-(3,20,8)
 Package                           16             8.54823840E-07                    1_GWF-SFR-1-(17)-inflow
 Model                             17          1 -1.85309545E-11       *                    1_GWF-(4,18,10)
 Package                           17             1.58375396E-07                    1_GWF-SFR-1-(17)-inflow
 Model                             18          1 -6.56541488E-12       *                    1_GWF-(5,16,13)
 Package                           18             2.91354076E-08                    1_GWF-SFR-1-(17)-inflow
 Model                             19          1  6.16751095E-12       *                     1_GWF-(5,14,5)
 Package                           19             5.31083715E-09                    1_GWF-SFR-1-(17)-inflow
 Model                             20          1 -5.44275736E-12       *                     1_GWF-(4,15,2)
 Package                           20             8.87063144E-10       *            1_GWF-SFR-1-(17)-inflow
 ----------------------------------------------------------------------------------------------------------


 20 CALLS TO NUMERICAL SOLUTION IN TIME STEP 3 STRESS PERIOD 1
 62 TOTAL ITERATIONS
 
    Solving:  Stress period:     1    Time step:     4
 

 SLN_1 OUTER ITERATION SUMMARY
 ----------------------------------------------------------------------------------------------------------
                                OUTER      INNER                    STEP   MAXIMUM CHANGE MODEL-(CELLID) OR
 OUTER ITERATION STEP       ITERATION  ITERATION  MAXIMUM CHANGE SUCCESS             MODEL-PACKAGE-(NUMBER)
 ----------------------------------------------------------------------------------------------------------
 Model                              1          7       2.7334085                              1_GWF-(1,3,2)
 Model                              2          6      0.34649438                            1_GWF-(1,14,10)
 Model                              3          6      0.39581581                             1_GWF-(3,19,9)
 Model                              4          5  7.97054110E-02                             1_GWF-(3,19,9)
 Model                              5          5  1.56584286E-02                             1_GWF-(3,19,9)
 Model                              6          5  3.05415901E-03                             1_GWF-(3,19,9)
 Model                              7          4  5.92418455E-04                             1_GWF-(3,19,9)
 Model                              8          4  1.14398853E-04                             1_GWF-(3,19,9)
 Model                              9          4  2.20094966E-05                             1_GWF-(3,19,9)
 Model                             10          3  4.22143158E-06                             1_GWF-(3,19,9)
 Model                             11          3  8.07578829E-07                             1_GWF-(3,19,9)
 Model                             12          3  1.54157547E-07                             1_GWF-(3,19,9)
 Model                             13          2  2.93717193E-08                             1_GWF-(3,19,9)
 Model                             14          2  5.58655699E-09                             1_GWF-(3,19,9)
 Model                             15          2  1.06321352E-09                            1_GWF-(3,20,10)
 Model                             16          1  2.01239914E-10       *                     1_GWF-(3,19,9)
 Package                           16            -1.53613719E-06                    1_GWF-SFR-1-(17)-inflow
 Model                             17          1  3.93924893E-11       *                     1_GWF-(4,18,8)
 Package                           17            -2.91620663E-07                    1_GWF-SFR-1-(17)-inflow
 Model                             18          1  8.39861514E-12       *                    1_GWF-(2,21,10)
 Package                           18            -5.51291545E-08                    1_GWF-SFR-1-(17)-inflow
 Model                             19          1  7.03437308E-12       *                    1_GWF-(5,16,14)
 Package                           19            -1.03632553E-08                    1_GWF-SFR-1-(17)-inflow
 Model                             20          1  7.13384907E-12       *                     1_GWF-(5,12,6)
 Package                           20            -1.86502141E-09                    1_GWF-SFR-1-(17)-inflow
 Model                             21          1 -6.45172804E-12       *                      1_GWF-(4,1,2)
 Package                           21            -4.07222577E-10       *            1_GWF-SFR-1-(17)-inflow
 ----------------------------------------------------------------------------------------------------------


 21 CALLS TO NUMERICAL SOLUTION IN TIME STEP 4 STRESS PERIOD 1
 67 TOTAL ITERATIONS
 
    Solving:  Stress period:     1    Time step:     5
 

 SLN_1 OUTER ITERATION SUMMARY
 ----------------------------------------------------------------------------------------------------------
                                OUTER      INNER                    STEP   MAXIMUM CHANGE MODEL-(CELLID) OR
 OUTER ITERATION STEP       ITERATION  ITERATION  MAXIMUM CHANGE SUCCESS             MODEL-PACKAGE-(NUMBER)
 ----------------------------------------------------------------------------------------------------------
 Model                              1          7       2.4313508                              1_GWF-(1,3,2)
 Model                              2          6      0.27017687                            1_GWF-(1,14,10)
 Model                              3          5      0.28784732                             1_GWF-(3,19,9)
 Model                              4          5  7.97046532E-02                             1_GWF-(3,19,9)
 Model                              5          5  1.96799315E-02                             1_GWF-(3,19,9)
 Model                              6          5  4.57686907E-03                             1_GWF-(3,19,9)
 Model                              7          5  1.02463061E-03                             1_GWF-(3,19,9)
 Model                              8          4  2.23468756E-04                             1_GWF-(3,19,9)
 Model                              9          4  4.78237370E-05                             1_GWF-(3,19,9)
 Model                             10          3  1.00895652E-05                             1_GWF-(3,19,9)
 Model                             11          3  2.10518435E-06                             1_GWF-(3,19,9)
 Model                             12          3  4.35399727E-07                             1_GWF-(3,19,9)
 Model                             13          2  8.94124099E-08                             1_GWF-(3,19,9)
 Model                             14          2  1.82552640E-08                             1_GWF-(3,19,9)
 Model                             15          2  3.71001363E-09                             1_GWF-(3,19,9)
 Model                             16          1  7.50162599E-10       *                     1_GWF-(3,20,9)
 Package                           16            -4.61737561E-06                    1_GWF-SFR-1-(17)-inflow
 Model                             17          1  1.53519863E-10       *                     1_GWF-(3,19,9)
 Package                           17            -9.34274306E-07                    1_GWF-SFR-1-(17)-inflow
 Model                             18          1  3.11786152E-11       *                    1_GWF-(3,18,10)
 Package                           18            -1.88452178E-07                    1_GWF-SFR-1-(17)-inflow
 Model                             19          1  8.68283223E-12       *                     1_GWF-(4,17,9)
 Package                           19            -3.79727949E-08                    1_GWF-SFR-1-(17)-inflow
 Model                             20          1 -5.57065505E-12       *                     1_GWF-(5,27,8)
 Package                           20            -7.51320684E-09                    1_GWF-SFR-1-(17)-inflow
 Model                             21          1  6.53699317E-12       *                     1_GWF-(5,4,12)
 Package                           21            -1.62745902E-09                    1_GWF-SFR-1-(17)-inflow
 Model                             22          1 -6.30961949E-12       *                     1_GWF-(5,16,3)
 Package                           22            -3.53469611E-10       *            1_GWF-SFR-1-(17)-inflow
 ----------------------------------------------------------------------------------------------------------


 22 CALLS TO NUMERICAL SOLUTION IN TIME STEP 5 STRESS PERIOD 1
 68 TOTAL ITERATIONS
 
    Solving:  Stress period:     1    Time step:     6
 

 SLN_1 OUTER ITERATION SUMMARY
 ----------------------------------------------------------------------------------------------------------
                                OUTER      INNER                    STEP   MAXIMUM CHANGE MODEL-(CELLID) OR
 OUTER ITERATION STEP       ITERATION  ITERATION  MAXIMUM CHANGE SUCCESS             MODEL-PACKAGE-(NUMBER)
 ----------------------------------------------------------------------------------------------------------
 Model                              1          7       2.1643505                              1_GWF-(1,3,2)
 Model                              2          6      0.22756669                             1_GWF-(1,12,9)
 Model                              3          5      0.23076968                             1_GWF-(3,19,9)
 Model                              4          5  7.87187942E-02                             1_GWF-(3,19,9)
 Model                              5          5  2.19870169E-02                             1_GWF-(3,19,9)
 Model                              6          5  5.57101268E-03                             1_GWF-(3,19,9)
 Model                              7          5  1.33540601E-03                             1_GWF-(3,19,9)
 Model                              8          4  3.08837728E-04                             1_GWF-(3,19,9)
 Model                              9          4  6.96644250E-05                             1_GWF-(3,19,9)
 Model                             10          4  1.54291690E-05                             1_GWF-(3,19,9)
 Model                             11          3  3.36990151E-06                             1_GWF-(3,19,9)
 Model                             12          3  7.28020694E-07                             1_GWF-(3,19,9)
 Model                             13          3  1.55905354E-07                             1_GWF-(3,19,9)
 Model                             14          2  3.31499592E-08                             1_GWF-(3,19,9)
 Model                             15          2  7.00570979E-09                             1_GWF-(3,19,9)
 Model                             16          2  1.47380774E-09                             1_GWF-(3,19,9)
 Model                             17          1  3.10066639E-10       *                     1_GWF-(3,19,9)
 Package                           17            -1.63416010E-06                    1_GWF-SFR-1-(17)-inflow
 Model                             18          1  6.61231070E-11       *                    1_GWF-(4,18,10)
 Package                           18            -3.42200935E-07                    1_GWF-SFR-1-(17)-inflow
 Model                             19          1  1.51061386E-11       *                    1_GWF-(4,17,11)
 Package                           19            -7.13898671E-08                    1_GWF-SFR-1-(17)-inflow
 Model                             20          1  6.52278231E-12       *                    1_GWF-(5,15,15)
 Package                           20            -1.49774848E-08                    1_GWF-SFR-1-(17)-inflow
 Model                             21          1  6.35225206E-12       *                     1_GWF-(4,1,13)
 Package                           21            -3.06888749E-09                    1_GWF-SFR-1-(17)-inflow
 Model                             22          1 -5.82645043E-12       *                      1_GWF-(4,9,4)
 Package                           22            -6.53987476E-10       *            1_GWF-SFR-1-(17)-inflow
 ----------------------------------------------------------------------------------------------------------


 22 CALLS TO NUMERICAL SOLUTION IN TIME STEP 6 STRESS PERIOD 1
 71 TOTAL ITERATIONS
 
    Solving:  Stress period:     1    Time step:     7
 

 SLN_1 OUTER ITERATION SUMMARY
 ----------------------------------------------------------------------------------------------------------
                                OUTER      INNER                    STEP   MAXIMUM CHANGE MODEL-(CELLID) OR
 OUTER ITERATION STEP       ITERATION  ITERATION  MAXIMUM CHANGE SUCCESS             MODEL-PACKAGE-(NUMBER)
 ----------------------------------------------------------------------------------------------------------
 Model                              1          7       1.9291219                              1_GWF-(1,3,2)
 Model                              2          6      0.20390683                             1_GWF-(1,12,9)
 Model                              3          6      0.19945964                             1_GWF-(3,19,9)
 Model                              4          5  7.80657531E-02                             1_GWF-(3,19,9)
 Model                              5          5  2.35529672E-02                             1_GWF-(3,19,9)
 Model                              6          5  6.29920893E-03                             1_GWF-(3,19,9)
 Model                              7          5  1.57661129E-03                             1_GWF-(3,19,9)
 Model                              8          4  3.78560150E-04                             1_GWF-(3,19,9)
 Model                              9          4  8.83576347E-05                             1_GWF-(3,19,9)
 Model                             10          4  2.02044786E-05                             1_GWF-(3,19,9)
 Model                             11          3  4.54908002E-06                             1_GWF-(3,19,9)
 Model                             12          3  1.01193609E-06                             1_GWF-(3,19,9)
 Model                             13          3  2.22939562E-07                             1_GWF-(3,19,9)
 Model                             14          2  4.87297882E-08                             1_GWF-(3,19,9)
 Model                             15          2  1.05832783E-08                             1_GWF-(3,19,9)
 Model                             16          2  2.28585861E-09                             1_GWF-(3,19,9)
 Model                             17          1  4.92121899E-10       *                     1_GWF-(3,19,9)
 Package                           17            -2.32374515E-06                    1_GWF-SFR-1-(17)-inflow
 Model                             18          1  1.06510356E-10       *                    1_GWF-(3,20,10)
 Package                           18            -4.99570091E-07                    1_GWF-SFR-1-(17)-inflow
 Model                             19          1  2.36468622E-11       *                     1_GWF-(5,18,9)
 Package                           19            -1.06992929E-07                    1_GWF-SFR-1-(17)-inflow
 Model                             20          1  7.50333129E-12       *                    1_GWF-(4,18,11)
 Package                           20            -2.27763032E-08                    1_GWF-SFR-1-(17)-inflow
 Model                             21          1 -6.80699941E-12       *                     1_GWF-(4,25,8)
 Package                           21            -4.88716933E-09                    1_GWF-SFR-1-(17)-inflow
 Model                             22          1 -5.57065505E-12       *                     1_GWF-(5,3,15)
 Package                           22            -1.08218295E-09                    1_GWF-SFR-1-(17)-inflow
 Model                             23          1  6.96331881E-12       *                      1_GWF-(4,3,5)
 Package                           23            -2.66813710E-10       *            1_GWF-SFR-1-(17)-inflow
 ----------------------------------------------------------------------------------------------------------


 23 CALLS TO NUMERICAL SOLUTION IN TIME STEP 7 STRESS PERIOD 1
 73 TOTAL ITERATIONS
 
    Solving:  Stress period:     1    Time step:     8
 

 SLN_1 OUTER ITERATION SUMMARY
 ----------------------------------------------------------------------------------------------------------
                                OUTER      INNER                    STEP   MAXIMUM CHANGE MODEL-(CELLID) OR
 OUTER ITERATION STEP       ITERATION  ITERATION  MAXIMUM CHANGE SUCCESS             MODEL-PACKAGE-(NUMBER)
 ----------------------------------------------------------------------------------------------------------
 Model                              1          7       1.7224199                              1_GWF-(1,3,2)
 Model                              2          6      0.18966377                             1_GWF-(1,12,9)
 Model                              3          6      0.18209799                             1_GWF-(3,19,9)
 Model                              4          5  7.80275454E-02                             1_GWF-(3,19,9)
 Model                              5          5  2.46245788E-02                             1_GWF-(3,19,9)
 Model                              6          5  6.79916124E-03                             1_GWF-(3,19,9)
 Model                              7          5  1.74745550E-03                             1_GWF-(3,19,9)
 Model                              8          4  4.29679282E-04                             1_GWF-(3,19,9)
 Model                              9          4  1.02538466E-04                             1_GWF-(3,19,9)
 Model                             10          4  2.39480399E-05                             1_GWF-(3,19,9)
 Model                             11          3  5.50305938E-06                             1_GWF-(3,19,9)
 Model                             12          3  1.24867584E-06                             1_GWF-(3,19,9)
 Model                             13          3  2.80481800E-07                             1_GWF-(3,19,9)
 Model                             14          2  6.24879419E-08                             1_GWF-(3,19,9)
 Model                             15          2  1.38272753E-08                             1_GWF-(3,19,9)
 Model                             16          2  3.04164871E-09                             1_GWF-(3,19,9)
 Model                             17          1  6.65934863E-10       *                     1_GWF-(3,19,9)
 Package                           17            -2.90352507E-06                    1_GWF-SFR-1-(17)-inflow
 Model                             18          1  1.46471280E-10       *                     1_GWF-(3,18,9)
 Package                           18            -6.35622862E-07                    1_GWF-SFR-1-(17)-inflow
 Model                             19          1  3.27418093E-11       *                     1_GWF-(5,20,8)
 Package                           19            -1.38491038E-07                    1_GWF-SFR-1-(17)-inflow
 Model                             20          1  8.66862138E-12       *                     1_GWF-(5,18,8)
 Package                           20            -3.01555315E-08                    1_GWF-SFR-1-(17)-inflow
 Model                             21          1  6.59383659E-12       *                     1_GWF-(5,6,15)
 Package                           21            -6.51161698E-09                    1_GWF-SFR-1-(17)-inflow
 Model                             22          1 -6.08224582E-12       *                      1_GWF-(4,4,7)
 Package                           22            -1.52098322E-09                    1_GWF-SFR-1-(17)-inflow
 Model                             23          1 -6.12487838E-12       *                      1_GWF-(5,5,4)
 Package                           23            -3.44640683E-10       *            1_GWF-SFR-1-(17)-inflow
 ----------------------------------------------------------------------------------------------------------


 23 CALLS TO NUMERICAL SOLUTION IN TIME STEP 8 STRESS PERIOD 1
 73 TOTAL ITERATIONS
 
    Solving:  Stress period:     1    Time step:     9
 

 SLN_1 OUTER ITERATION SUMMARY
 ----------------------------------------------------------------------------------------------------------
                                OUTER      INNER                    STEP   MAXIMUM CHANGE MODEL-(CELLID) OR
 OUTER ITERATION STEP       ITERATION  ITERATION  MAXIMUM CHANGE SUCCESS             MODEL-PACKAGE-(NUMBER)
 ----------------------------------------------------------------------------------------------------------
 Model                              1          7       1.5411349                              1_GWF-(1,3,2)
 Model                              2          6      0.18110119                             1_GWF-(1,12,9)
 Model                              3          6      0.17256555                             1_GWF-(3,19,9)
 Model                              4          5  7.83730537E-02                             1_GWF-(3,19,9)
 Model                              5          5  2.54592553E-02                             1_GWF-(3,19,9)
 Model                              6          5  7.17839684E-03                             1_GWF-(3,19,9)
 Model                              7          5  1.87805076E-03                             1_GWF-(3,19,9)
 Model                              8          4  4.69344598E-04                             1_GWF-(3,19,9)
 Model                              9          4  1.13731852E-04                             1_GWF-(3,19,9)
 Model                             10          4  2.69558409E-05                             1_GWF-(3,19,9)
 Model                             11          3  6.28332262E-06                             1_GWF-(3,19,9)
 Model                             12          3  1.44575760E-06                             1_GWF-(3,19,9)
 Model                             13          3  3.29231838E-07                             1_GWF-(3,19,9)
 Model                             14          2  7.43425659E-08                             1_GWF-(3,19,9)
 Model                             15          2  1.66689347E-08                             1_GWF-(3,19,9)
 Model                             16          2  3.71599640E-09                             1_GWF-(3,19,9)
 Model                             17          1  8.24528001E-10       *                     1_GWF-(3,19,8)
 Package                           17            -3.39367612E-06                    1_GWF-SFR-1-(17)-inflow
 Model                             18          1  1.83717930E-10       *                    1_GWF-(3,20,10)
 Package                           18            -7.52718806E-07                    1_GWF-SFR-1-(17)-inflow
 Model                             19          1  4.30304681E-11       *                    1_GWF-(4,19,10)
 Package                           19            -1.66165261E-07                    1_GWF-SFR-1-(17)-inflow
 Model                             20          1  1.04023457E-11       *                    1_GWF-(4,21,11)
 Package                           20            -3.66151862E-08                    1_GWF-SFR-1-(17)-inflow
 Model                             21          1 -8.32756086E-12       *                    1_GWF-(5,26,14)
 Package                           21            -8.13944516E-09                    1_GWF-SFR-1-(17)-inflow
 Model                             22          1 -6.57962573E-12       *                    1_GWF-(5,12,11)
 Package                           22            -1.70506171E-09                    1_GWF-SFR-1-(17)-inflow
 Model                             23          1  7.65965069E-12       *                      1_GWF-(3,2,5)
 Package                           23            -3.84801571E-10       *            1_GWF-SFR-1-(17)-inflow
 ----------------------------------------------------------------------------------------------------------


 23 CALLS TO NUMERICAL SOLUTION IN TIME STEP 9 STRESS PERIOD 1
 73 TOTAL ITERATIONS
 
    Solving:  Stress period:     1    Time step:    10
 

 SLN_1 OUTER ITERATION SUMMARY
 ----------------------------------------------------------------------------------------------------------
                                OUTER      INNER                    STEP   MAXIMUM CHANGE MODEL-(CELLID) OR
 OUTER ITERATION STEP       ITERATION  ITERATION  MAXIMUM CHANGE SUCCESS             MODEL-PACKAGE-(NUMBER)
 ----------------------------------------------------------------------------------------------------------
 Model                              1          7       1.3823529                              1_GWF-(1,3,2)
 Model                              2          6      0.17614946                             1_GWF-(1,12,9)
 Model                              3          6      0.16755593                             1_GWF-(3,19,9)
 Model                              4          5  7.89664387E-02                             1_GWF-(3,19,9)
 Model                              5          5  2.62388788E-02                             1_GWF-(3,19,9)
 Model                              6          5  7.51721836E-03                             1_GWF-(3,19,9)
 Model                              7          5  1.99298287E-03                             1_GWF-(3,19,9)
 Model                              8          4  5.04062107E-04                             1_GWF-(3,19,9)
 Model                              9          4  1.23521773E-04                             1_GWF-(3,19,9)
 Model                             10          4  2.95919592E-05                             1_GWF-(3,19,9)
 Model                             11          3  6.96983984E-06                             1_GWF-(3,19,9)
 Model                             12          3  1.62006344E-06                             1_GWF-(3,19,9)
 Model                             13          3  3.72611737E-07                             1_GWF-(3,19,9)
 Model                             14          2  8.49631050E-08                             1_GWF-(3,19,9)
 Model                             15          2  1.92350171E-08                             1_GWF-(3,19,9)
 Model                             16          2  4.32888214E-09                             1_GWF-(3,19,9)
 Model                             17          1  9.69635039E-10       *                     1_GWF-(3,19,8)
 Package                           17            -3.83937847E-06                    1_GWF-SFR-1-(17)-inflow
 Model                             18          1  2.18179252E-10       *                     1_GWF-(3,19,9)
 Package                           18            -8.59395796E-07                    1_GWF-SFR-1-(17)-inflow
 Model                             19          1  5.01358954E-11       *                    1_GWF-(3,19,10)
 Package                           19            -1.91561912E-07                    1_GWF-SFR-1-(17)-inflow
 Model                             20          1  1.19939614E-11       *                     1_GWF-(4,20,8)
 Package                           20            -4.26258239E-08                    1_GWF-SFR-1-(17)-inflow
 Model                             21          1  6.62225830E-12       *                      1_GWF-(5,6,5)
 Package                           21            -9.55075589E-09                    1_GWF-SFR-1-(17)-inflow
 Model                             22          1 -6.75015599E-12       *                     1_GWF-(5,3,16)
 Package                           22            -2.00939367E-09                    1_GWF-SFR-1-(17)-inflow
 Model                             23          1  9.37916411E-12       *                     1_GWF-(5,16,6)
 Package                           23            -3.52791050E-10       *            1_GWF-SFR-1-(17)-inflow
 ----------------------------------------------------------------------------------------------------------


 23 CALLS TO NUMERICAL SOLUTION IN TIME STEP 10 STRESS PERIOD 1
 73 TOTAL ITERATIONS
 
    Solving:  Stress period:     1    Time step:    11
 

 SLN_1 OUTER ITERATION SUMMARY
 ----------------------------------------------------------------------------------------------------------
                                OUTER      INNER                    STEP   MAXIMUM CHANGE MODEL-(CELLID) OR
 OUTER ITERATION STEP       ITERATION  ITERATION  MAXIMUM CHANGE SUCCESS             MODEL-PACKAGE-(NUMBER)
 ----------------------------------------------------------------------------------------------------------
 Model                              1          7       1.2433901                              1_GWF-(1,3,2)
 Model                              2          6      0.17819049                              1_GWF-(3,9,9)
 Model                              3          6      0.16528135                             1_GWF-(3,19,9)
 Model                              4          5  7.98094777E-02                             1_GWF-(3,19,9)
 Model                              5          5  2.68400598E-02                             1_GWF-(3,19,9)
 Model                              6          5  7.76202217E-03                             1_GWF-(3,19,9)
 Model                              7          5  2.07519095E-03                             1_GWF-(3,19,9)
 Model                              8          4  5.29001366E-04                             1_GWF-(3,19,9)
 Model                              9          4  1.30619206E-04                             1_GWF-(3,19,9)
 Model                             10          4  3.15241806E-05                             1_GWF-(3,19,9)
 Model                             11          3  7.47891050E-06                             1_GWF-(3,19,9)
 Model                             12          3  1.75083350E-06                             1_GWF-(3,19,9)
 Model                             13          3  4.05534522E-07                             1_GWF-(3,19,9)
 Model                             14          2  9.31174071E-08                             1_GWF-(3,19,9)
 Model                             15          2  2.12263274E-08                             1_GWF-(3,19,9)
 Model                             16          2  4.81048801E-09                             1_GWF-(3,19,9)
 Model                             17          2  1.08440190E-09                            1_GWF-(3,20,10)
 Model                             18          1  2.43773002E-10       *                     1_GWF-(3,18,9)
 Package                           18            -9.44256338E-07                    1_GWF-SFR-1-(17)-inflow
 Model                             19          1  5.62181413E-11       *                    1_GWF-(4,19,10)
 Package                           19            -2.11873320E-07                    1_GWF-SFR-1-(17)-inflow
 Model                             20          1  1.38413725E-11       *                     1_GWF-(5,20,7)
 Package                           20            -4.73300903E-08                    1_GWF-SFR-1-(17)-inflow
 Model                             21          1 -5.79802872E-12       *                     1_GWF-(5,23,2)
 Package                           21            -1.06066213E-08                    1_GWF-SFR-1-(17)-inflow
 Model                             22          1  6.02540240E-12       *                    1_GWF-(4,19,15)
 Package                           22            -2.29677858E-09                    1_GWF-SFR-1-(17)-inflow
 Model                             23          1 -6.53699317E-12       *                    1_GWF-(4,25,12)
 Package                           23            -5.76232318E-10       *            1_GWF-SFR-1-(17)-inflow
 ----------------------------------------------------------------------------------------------------------


 23 CALLS TO NUMERICAL SOLUTION IN TIME STEP 11 STRESS PERIOD 1
 74 TOTAL ITERATIONS
 
    Solving:  Stress period:     1    Time step:    12
 

 SLN_1 OUTER ITERATION SUMMARY
 ----------------------------------------------------------------------------------------------------------
                                OUTER      INNER                    STEP   MAXIMUM CHANGE MODEL-(CELLID) OR
 OUTER ITERATION STEP       ITERATION  ITERATION  MAXIMUM CHANGE SUCCESS             MODEL-PACKAGE-(NUMBER)
 ----------------------------------------------------------------------------------------------------------
 Model                              1          7       1.1218079                              1_GWF-(1,3,2)
 Model                              2          6      0.18097922                              1_GWF-(3,9,9)
 Model                              3          6      0.16461340                             1_GWF-(3,19,9)
 Model                              4          5  8.07062108E-02                             1_GWF-(3,19,9)
 Model                              5          5  2.74315904E-02                             1_GWF-(3,19,9)
 Model                              6          5  7.98837839E-03                             1_GWF-(3,19,9)
 Model                              7          5  2.14891155E-03                             1_GWF-(3,19,9)
 Model                              8          5  5.50978782E-04                             1_GWF-(3,19,9)
 Model                              9          4  1.36807847E-04                             1_GWF-(3,19,9)
 Model                             10          4  3.31981405E-05                             1_GWF-(3,19,9)
 Model                             11          3  7.91828546E-06                             1_GWF-(3,19,9)
 Model                             12          3  1.86349195E-06                             1_GWF-(3,19,9)
 Model                             13          3  4.33883343E-07                             1_GWF-(3,19,9)
 Model                             14          2  1.00140426E-07                             1_GWF-(3,19,9)
 Model                             15          2  2.29452723E-08                             1_GWF-(3,19,9)
 Model                             16          2  5.22645394E-09                             1_GWF-(3,19,9)
 Model                             17          2  1.18349419E-09                             1_GWF-(3,19,9)
 Model                             18          1  2.67931455E-10       *                    1_GWF-(3,19,10)
 Package                           18            -1.02097049E-06                    1_GWF-SFR-1-(17)-inflow
 Model                             19          1  6.12061513E-11       *                     1_GWF-(4,19,8)
 Package                           19            -2.30154980E-07                    1_GWF-SFR-1-(17)-inflow
 Model                             20          1  1.56461510E-11       *                     1_GWF-(5,17,9)
 Package                           20            -5.17047130E-08                    1_GWF-SFR-1-(17)-inflow
 Model                             21          1  7.43227702E-12       *                      1_GWF-(5,6,5)
 Package                           21            -1.15662100E-08                    1_GWF-SFR-1-(17)-inflow
 Model                             22          1 -6.46593890E-12       *                     1_GWF-(4,23,4)
 Package                           22            -2.61242369E-09                    1_GWF-SFR-1-(17)-inflow
 Model                             23          1 -7.34701189E-12       *                     1_GWF-(4,25,5)
 Package                           23            -5.43545371E-10       *            1_GWF-SFR-1-(17)-inflow
 ----------------------------------------------------------------------------------------------------------


 23 CALLS TO NUMERICAL SOLUTION IN TIME STEP 12 STRESS PERIOD 1
 75 TOTAL ITERATIONS
 
    Solving:  Stress period:     1    Time step:    13
 

 SLN_1 OUTER ITERATION SUMMARY
 ----------------------------------------------------------------------------------------------------------
                                OUTER      INNER                    STEP   MAXIMUM CHANGE MODEL-(CELLID) OR
 OUTER ITERATION STEP       ITERATION  ITERATION  MAXIMUM CHANGE SUCCESS             MODEL-PACKAGE-(NUMBER)
 ----------------------------------------------------------------------------------------------------------
 Model                              1          7       1.0154154                              1_GWF-(1,3,2)
 Model                              2          6      0.18325769                              1_GWF-(3,9,9)
 Model                              3          6      0.16493908                             1_GWF-(3,19,9)
 Model                              4          5  8.16879222E-02                             1_GWF-(3,19,9)
 Model                              5          5  2.79064862E-02                             1_GWF-(3,19,9)
 Model                              6          5  8.16964378E-03                             1_GWF-(3,19,9)
 Model                              7          5  2.20803313E-03                             1_GWF-(3,19,9)
 Model                              8          5  5.68641442E-04                             1_GWF-(3,19,9)
 Model                              9          4  1.41794544E-04                             1_GWF-(3,19,9)
 Model                             10          4  3.45510269E-05                             1_GWF-(3,19,9)
 Model                             11          3  8.27455398E-06                             1_GWF-(3,19,9)
 Model                             12          3  1.95516029E-06                             1_GWF-(3,19,9)
 Model                             13          3  4.57034474E-07                             1_GWF-(3,19,9)
 Model                             14          2  1.05900199E-07                             1_GWF-(3,19,9)
 Model                             15          2  2.43589113E-08                             1_GWF-(3,19,9)
 Model                             16          2  5.56825341E-09                             1_GWF-(3,19,9)
 Model                             17          2  1.26686928E-09                             1_GWF-(3,19,9)
 Model                             18          1  2.87769808E-10       *                     1_GWF-(3,20,9)
 Package                           18            -1.08785117E-06                    1_GWF-SFR-1-(17)-inflow
 Model                             19          1  6.56115162E-11       *                     1_GWF-(3,18,8)
 Package                           19            -2.46242254E-07                    1_GWF-SFR-1-(17)-inflow
 Model                             20          1  1.66835434E-11       *                    1_GWF-(5,20,10)
 Package                           20            -5.55142175E-08                    1_GWF-SFR-1-(17)-inflow
 Model                             21          1 -6.65068001E-12       *                    1_GWF-(5,12,15)
 Package                           21            -1.25647012E-08                    1_GWF-SFR-1-(17)-inflow
 Model                             22          1  6.99174052E-12       *                     1_GWF-(4,17,2)
 Package                           22            -2.77139428E-09                    1_GWF-SFR-1-(17)-inflow
 Model                             23          1  6.66489086E-12       *                    1_GWF-(5,25,13)
 Package                           23            -5.82767294E-10       *            1_GWF-SFR-1-(17)-inflow
 ----------------------------------------------------------------------------------------------------------


 23 CALLS TO NUMERICAL SOLUTION IN TIME STEP 13 STRESS PERIOD 1
 75 TOTAL ITERATIONS
 
    Solving:  Stress period:     1    Time step:    14
 

 SLN_1 OUTER ITERATION SUMMARY
 ----------------------------------------------------------------------------------------------------------
                                OUTER      INNER                    STEP   MAXIMUM CHANGE MODEL-(CELLID) OR
 OUTER ITERATION STEP       ITERATION  ITERATION  MAXIMUM CHANGE SUCCESS             MODEL-PACKAGE-(NUMBER)
 ----------------------------------------------------------------------------------------------------------
 Model                              1          7      0.92226101                              1_GWF-(1,3,2)
 Model                              2          6      0.18503063                              1_GWF-(3,9,9)
 Model                              3          6      0.16583858                             1_GWF-(3,19,9)
 Model                              4          5  8.26566469E-02                             1_GWF-(3,19,9)
 Model                              5          5  2.84161428E-02                             1_GWF-(3,19,9)
 Model                              6          5  8.34990695E-03                             1_GWF-(3,19,9)
 Model                              7          5  2.26444971E-03                             1_GWF-(3,19,9)
 Model                              8          5  5.85078250E-04                             1_GWF-(3,19,9)
 Model                              9          4  1.46358830E-04                             1_GWF-(3,19,9)
 Model                             10          4  3.57751883E-05                             1_GWF-(3,19,9)
 Model                             11          3  8.59430905E-06                             1_GWF-(3,19,9)
 Model                             12          3  2.03695483E-06                             1_GWF-(3,19,9)
 Model                             13          3  4.77606278E-07                             1_GWF-(3,19,9)
 Model                             14          2  1.11001697E-07                             1_GWF-(3,19,9)
 Model                             15          2  2.56114845E-08                             1_GWF-(3,19,9)
 Model                             16          2  5.87094462E-09                             1_GWF-(3,19,9)
 Model                             17          2  1.33896094E-09                             1_GWF-(3,19,9)
 Model                             18          1  3.04822834E-10       *                    1_GWF-(3,18,10)
 Package                           18            -1.15073943E-06                    1_GWF-SFR-1-(17)-inflow
 Model                             19          1  7.08979542E-11       *                     1_GWF-(4,19,9)
 Package                           19            -2.61168933E-07                    1_GWF-SFR-1-(17)-inflow
 Model                             20          1  1.73372428E-11       *                    1_GWF-(4,18,10)
 Package                           20            -5.90633293E-08                    1_GWF-SFR-1-(17)-inflow
 Model                             21          1 -5.89750471E-12       *                     1_GWF-(4,2,14)
 Package                           21            -1.34443212E-08                    1_GWF-SFR-1-(17)-inflow
 Model                             22          1  7.20490334E-12       *                     1_GWF-(4,5,11)
 Package                           22            -3.00188795E-09                    1_GWF-SFR-1-(17)-inflow
 Model                             23          1 -7.74491582E-12       *                     1_GWF-(5,4,14)
 Package                           23            -6.85072743E-10       *            1_GWF-SFR-1-(17)-inflow
 ----------------------------------------------------------------------------------------------------------


 23 CALLS TO NUMERICAL SOLUTION IN TIME STEP 14 STRESS PERIOD 1
 75 TOTAL ITERATIONS
 
    Solving:  Stress period:     1    Time step:    15
 

 SLN_1 OUTER ITERATION SUMMARY
 ----------------------------------------------------------------------------------------------------------
                                OUTER      INNER                    STEP   MAXIMUM CHANGE MODEL-(CELLID) OR
 OUTER ITERATION STEP       ITERATION  ITERATION  MAXIMUM CHANGE SUCCESS             MODEL-PACKAGE-(NUMBER)
 ----------------------------------------------------------------------------------------------------------
 Model                              1          7      0.91060031                              1_GWF-(1,3,3)
 Model                              2          6      0.18671376                              1_GWF-(3,9,9)
 Model                              3          6      0.16711721                             1_GWF-(3,19,9)
 Model                              4          5  8.36798491E-02                             1_GWF-(3,19,9)
 Model                              5          5  2.89033254E-02                             1_GWF-(3,19,9)
 Model                              6          5  8.53018557E-03                             1_GWF-(3,19,9)
 Model                              7          5  2.32153158E-03                             1_GWF-(3,19,9)
 Model                              8          5  6.01706578E-04                             1_GWF-(3,19,9)
 Model                              9          4  1.50956425E-04                             1_GWF-(3,19,9)
 Model                             10          4  3.70012885E-05                             1_GWF-(3,19,9)
 Model                             11          3  8.91268000E-06                             1_GWF-(3,19,9)
 Model                             12          3  2.11793730E-06                             1_GWF-(3,19,9)
 Model                             13          3  4.97868868E-07                             1_GWF-(3,19,9)
 Model                             14          2  1.16005069E-07                             1_GWF-(3,19,9)
 Model                             15          2  2.68303353E-08                             1_GWF-(3,19,9)
 Model                             16          2  6.16752516E-09                             1_GWF-(3,19,9)
 Model                             17          2  1.41066892E-09                             1_GWF-(3,19,9)
 Model                             18          1  3.21833227E-10       *                    1_GWF-(3,19,10)
 Package                           18            -1.21533088E-06                    1_GWF-SFR-1-(17)-inflow
 Model                             19          1  7.40953965E-11       *                    1_GWF-(3,20,10)
 Package                           19            -2.76641012E-07                    1_GWF-SFR-1-(17)-inflow
 Model                             20          1  1.78346227E-11       *                    1_GWF-(5,18,10)
 Package                           20            -6.27965414E-08                    1_GWF-SFR-1-(17)-inflow
 Model                             21          1  6.57962573E-12       *                     1_GWF-(5,19,7)
 Package                           21            -1.41500420E-08                    1_GWF-SFR-1-(17)-inflow
 Model                             22          1  6.53699317E-12       *                     1_GWF-(5,22,9)
 Package                           22            -3.16678495E-09                    1_GWF-SFR-1-(17)-inflow
 Model                             23          1 -6.55120402E-12       *                    1_GWF-(5,13,11)
 Package                           23            -7.91012444E-10       *            1_GWF-SFR-1-(17)-inflow
 ----------------------------------------------------------------------------------------------------------


 23 CALLS TO NUMERICAL SOLUTION IN TIME STEP 15 STRESS PERIOD 1
 75 TOTAL ITERATIONS
 
    Solving:  Stress period:     1    Time step:    16
 

 SLN_1 OUTER ITERATION SUMMARY
 ----------------------------------------------------------------------------------------------------------
                                OUTER      INNER                    STEP   MAXIMUM CHANGE MODEL-(CELLID) OR
 OUTER ITERATION STEP       ITERATION  ITERATION  MAXIMUM CHANGE SUCCESS             MODEL-PACKAGE-(NUMBER)
 ----------------------------------------------------------------------------------------------------------
 Model                              1          7      0.89634294                              1_GWF-(1,3,3)
 Model                              2          6      0.18839064                              1_GWF-(3,9,9)
 Model                              3          6      0.16865786                             1_GWF-(3,19,9)
 Model                              4          5  8.47562537E-02                             1_GWF-(3,19,9)
 Model                              5          5  2.93207564E-02                             1_GWF-(3,19,9)
 Model                              6          5  8.66879491E-03                             1_GWF-(3,19,9)
 Model                              7          5  2.36367808E-03                             1_GWF-(3,19,9)
 Model                              8          5  6.13806046E-04                             1_GWF-(3,19,9)
 Model                              9          4  1.54291104E-04                             1_GWF-(3,19,9)
 Model                             10          4  3.78926237E-05                             1_GWF-(3,19,9)
 Model                             11          4  9.14530035E-06                             1_GWF-(3,19,9)
 Model                             12          3  2.17748941E-06                             1_GWF-(3,19,9)
 Model                             13          3  5.12876866E-07                             1_GWF-(3,19,9)
 Model                             14          2  1.19736939E-07                             1_GWF-(3,19,9)
 Model                             15          2  2.77491523E-08                             1_GWF-(3,19,9)
 Model                             16          2  6.39042241E-09                             1_GWF-(3,19,9)
 Model                             17          2  1.46435752E-09                            1_GWF-(3,19,10)
 Model                             18          1  3.35219852E-10       *                     1_GWF-(3,20,8)
 Package                           18            -1.26856450E-06                    1_GWF-SFR-1-(17)-inflow
 Model                             19          1  7.79607490E-11       *                    1_GWF-(4,18,10)
 Package                           19            -2.89316274E-07                    1_GWF-SFR-1-(17)-inflow
 Model                             20          1  1.96394012E-11       *                     1_GWF-(3,17,9)
 Package                           20            -6.57010406E-08                    1_GWF-SFR-1-(17)-inflow
 Model                             21          1  6.69331257E-12       *                      1_GWF-(4,4,9)
 Package                           21            -1.49211992E-08                    1_GWF-SFR-1-(17)-inflow
 Model                             22          1 -7.56017471E-12       *                     1_GWF-(5,4,10)
 Package                           22            -3.38372476E-09                    1_GWF-SFR-1-(17)-inflow
 Model                             23          1 -6.79278855E-12       *                     1_GWF-(3,14,2)
 Package                           23            -7.46807649E-10       *            1_GWF-SFR-1-(17)-inflow
 ----------------------------------------------------------------------------------------------------------


 23 CALLS TO NUMERICAL SOLUTION IN TIME STEP 16 STRESS PERIOD 1
 76 TOTAL ITERATIONS
 
    Solving:  Stress period:     1    Time step:    17
 

 SLN_1 OUTER ITERATION SUMMARY
 ----------------------------------------------------------------------------------------------------------
                                OUTER      INNER                    STEP   MAXIMUM CHANGE MODEL-(CELLID) OR
 OUTER ITERATION STEP       ITERATION  ITERATION  MAXIMUM CHANGE SUCCESS             MODEL-PACKAGE-(NUMBER)
 ----------------------------------------------------------------------------------------------------------
 Model                              1          7      0.87939334                              1_GWF-(1,3,3)
 Model                              2          6      0.18984896                              1_GWF-(3,9,9)
 Model                              3          6      0.17032839                             1_GWF-(3,19,9)
 Model                              4          5  8.57979835E-02                             1_GWF-(3,19,9)
 Model                              5          5  2.98518431E-02                             1_GWF-(3,19,9)
 Model                              6          5  8.84536311E-03                             1_GWF-(3,19,9)
 Model                              7          5  2.41651909E-03                             1_GWF-(3,19,9)
 Model                              8          5  6.28689746E-04                             1_GWF-(3,19,9)
 Model                              9          4  1.58316776E-04                             1_GWF-(3,19,9)
 Model                             10          4  3.89500347E-05                             1_GWF-(3,19,9)
 Model                             11          4  9.41692369E-06                             1_GWF-(3,19,9)
 Model                             12          3  2.24604690E-06                             1_GWF-(3,19,9)
 Model                             13          3  5.29932251E-07                             1_GWF-(3,19,9)
 Model                             14          3  1.23930903E-07                             1_GWF-(3,19,9)
 Model                             15          2  2.87686674E-08                             1_GWF-(3,19,9)
 Model                             16          2  6.63779076E-09                             1_GWF-(3,19,9)
 Model                             17          2  1.52439839E-09                            1_GWF-(3,19,10)
 Model                             18          1  3.47924356E-10       *                     1_GWF-(3,18,8)
 Package                           18            -1.32855901E-06                    1_GWF-SFR-1-(17)-inflow
 Model                             19          1  7.98934252E-11       *                     1_GWF-(3,20,8)
 Package                           19            -3.03544386E-07                    1_GWF-SFR-1-(17)-inflow
 Model                             20          1  2.02788897E-11       *                     1_GWF-(5,20,7)
 Package                           20            -6.90150265E-08                    1_GWF-SFR-1-(17)-inflow
 Model                             21          1  8.25650659E-12       *                     1_GWF-(5,23,6)
 Package                           21            -1.56949627E-08                    1_GWF-SFR-1-(17)-inflow
 Model                             22          1  7.77333753E-12       *                    1_GWF-(5,25,11)
 Package                           22            -3.59966070E-09                    1_GWF-SFR-1-(17)-inflow
 Model                             23          1 -6.86384283E-12       *                    1_GWF-(4,25,11)
 Package                           23            -7.67559269E-10       *            1_GWF-SFR-1-(17)-inflow
 ----------------------------------------------------------------------------------------------------------


 23 CALLS TO NUMERICAL SOLUTION IN TIME STEP 17 STRESS PERIOD 1
 77 TOTAL ITERATIONS
 
    Solving:  Stress period:     1    Time step:    18
 

 SLN_1 OUTER ITERATION SUMMARY
 ----------------------------------------------------------------------------------------------------------
                                OUTER      INNER                    STEP   MAXIMUM CHANGE MODEL-(CELLID) OR
 OUTER ITERATION STEP       ITERATION  ITERATION  MAXIMUM CHANGE SUCCESS             MODEL-PACKAGE-(NUMBER)
 ----------------------------------------------------------------------------------------------------------
 Model                              1          7      0.86016938                              1_GWF-(1,3,3)
 Model                              2          6      0.19157865                              1_GWF-(3,9,9)
 Model                              3          6      0.17215161                             1_GWF-(3,19,9)
 Model                              4          5  8.69479728E-02                             1_GWF-(3,19,9)
 Model                              5          5  3.03025199E-02                             1_GWF-(3,19,9)
 Model                              6          5  9.00550942E-03                             1_GWF-(3,19,9)
 Model                              7          5  2.46603619E-03                             1_GWF-(3,19,9)
 Model                              8          5  6.42872729E-04                             1_GWF-(3,19,9)
 Model                              9          4  1.62188632E-04                             1_GWF-(3,19,9)
 Model                             10          4  3.99724876E-05                             1_GWF-(3,19,9)
 Model                             11          4  9.68039056E-06                             1_GWF-(3,19,9)
 Model                             12          3  2.31266576E-06                             1_GWF-(3,19,9)
 Model                             13          3  5.46526863E-07                             1_GWF-(3,19,9)
 Model                             14          3  1.28012758E-07                             1_GWF-(3,19,9)
 Model                             15          2  2.97621341E-08                             1_GWF-(3,19,9)
 Model                             16          2  6.87761315E-09                             1_GWF-(3,19,9)
 Model                             17          2  1.57962177E-09                             1_GWF-(3,18,9)
 Model                             18          1  3.62959440E-10       *                     1_GWF-(3,20,8)
 Package                           18            -1.38933098E-06                    1_GWF-SFR-1-(17)-inflow
 Model                             19          1  8.23376922E-11       *                    1_GWF-(3,19,10)
 Package                           19            -3.17791603E-07                    1_GWF-SFR-1-(17)-inflow
 Model                             20          1  2.05346851E-11       *                    1_GWF-(5,18,10)
 Package                           20            -7.25153222E-08                    1_GWF-SFR-1-(17)-inflow
 Model                             21          1 -7.17648163E-12       *                    1_GWF-(5,14,12)
 Package                           21            -1.63484870E-08                    1_GWF-SFR-1-(17)-inflow
 Model                             22          1  6.42330633E-12       *                    1_GWF-(5,14,12)
 Package                           22            -3.79945817E-09                    1_GWF-SFR-1-(17)-inflow
 Model                             23          1 -6.02540240E-12       *                    1_GWF-(4,13,15)
 Package                           23            -8.00271704E-10       *            1_GWF-SFR-1-(17)-inflow
 ----------------------------------------------------------------------------------------------------------


 23 CALLS TO NUMERICAL SOLUTION IN TIME STEP 18 STRESS PERIOD 1
 77 TOTAL ITERATIONS
 
    Solving:  Stress period:     1    Time step:    19
 

 SLN_1 OUTER ITERATION SUMMARY
 ----------------------------------------------------------------------------------------------------------
                                OUTER      INNER                    STEP   MAXIMUM CHANGE MODEL-(CELLID) OR
 OUTER ITERATION STEP       ITERATION  ITERATION  MAXIMUM CHANGE SUCCESS             MODEL-PACKAGE-(NUMBER)
 ----------------------------------------------------------------------------------------------------------
 Model                              1          7      0.83932315                              1_GWF-(1,3,3)
 Model                              2          6      0.19327263                              1_GWF-(3,9,9)
 Model                              3          6      0.17406939                             1_GWF-(3,19,9)
 Model                              4          5  8.81110571E-02                             1_GWF-(3,19,9)
 Model                              5          5  3.07262192E-02                             1_GWF-(3,19,9)
 Model                              6          5  9.14027287E-03                             1_GWF-(3,19,9)
 Model                              7          5  2.50574477E-03                             1_GWF-(3,19,9)
 Model                              8          5  6.54004551E-04                             1_GWF-(3,19,9)
 Model                              9          4  1.65200888E-04                             1_GWF-(3,19,9)
 Model                             10          4  4.07662066E-05                             1_GWF-(3,19,9)
 Model                             11          4  9.88522250E-06                             1_GWF-(3,19,9)
 Model                             12          3  2.36464238E-06                             1_GWF-(3,19,9)
 Model                             13          3  5.59533532E-07                             1_GWF-(3,19,9)
 Model                             14          3  1.31232042E-07                             1_GWF-(3,19,9)
 Model                             15          2  3.05507513E-08                             1_GWF-(3,19,9)
 Model                             16          2  7.06764069E-09                             1_GWF-(3,19,9)
[...]
 Package                           26            -8.79831933E-09                    1_GWF-SFR-1-(17)-inflow
 Model                             27          1 -1.49782409E-11       *                    1_GWF-(4,15,15)
 Package                           27            -2.37780746E-09                    1_GWF-SFR-1-(17)-inflow
 Model                             28          1  1.40403245E-11       *                     1_GWF-(4,3,16)
 Package                           28            -9.04495074E-10       *            1_GWF-SFR-1-(17)-inflow
 ----------------------------------------------------------------------------------------------------------


 28 CALLS TO NUMERICAL SOLUTION IN TIME STEP 196 STRESS PERIOD 1
 123 TOTAL ITERATIONS
 
    Solving:  Stress period:     1    Time step:   197
 

 SLN_1 OUTER ITERATION SUMMARY
 ----------------------------------------------------------------------------------------------------------
                                OUTER      INNER                    STEP   MAXIMUM CHANGE MODEL-(CELLID) OR
 OUTER ITERATION STEP       ITERATION  ITERATION  MAXIMUM CHANGE SUCCESS             MODEL-PACKAGE-(NUMBER)
 ----------------------------------------------------------------------------------------------------------
 Model                              1         10     -0.65143910                             1_GWF-(3,19,9)
 Model                              2         10      0.38807019                             1_GWF-(1,12,9)
 Model                              3          8      0.34758807                             1_GWF-(3,19,9)
 Model                              4          8      0.22668655                             1_GWF-(3,19,9)
 Model                              5          8  9.82894592E-02                             1_GWF-(3,19,9)
 Model                              6          8  3.63561598E-02                             1_GWF-(3,19,9)
 Model                              7          7  1.23980077E-02                             1_GWF-(3,19,9)
 Model                              8          7  4.02835260E-03                             1_GWF-(3,19,9)
 Model                              9          7  1.26783604E-03                             1_GWF-(3,19,9)
 Model                             10          6  3.90127317E-04                             1_GWF-(3,19,9)
 Model                             11          6  1.18050220E-04                             1_GWF-(3,19,9)
 Model                             12          5  3.52623537E-05                             1_GWF-(3,19,9)
 Model                             13          5  1.04257165E-05                             1_GWF-(3,19,9)
 Model                             14          4  3.05702146E-06                             1_GWF-(3,19,9)
 Model                             15          4  8.90281285E-07                             1_GWF-(3,19,9)
 Model                             16          3  2.57798845E-07                             1_GWF-(3,19,9)
 Model                             17          3  7.42916200E-08                             1_GWF-(3,19,9)
 Model                             18          2  2.13231459E-08                             1_GWF-(3,19,9)
 Model                             19          2  6.09597350E-09                             1_GWF-(3,19,9)
 Model                             20          2  1.73986336E-09                             1_GWF-(3,18,9)
 Model                             21          1  4.96086727E-10       *                    1_GWF-(3,20,10)
 Package                           21            -4.94817683E-06                    1_GWF-SFR-1-(17)-inflow
 Model                             22          1  1.40929046E-10       *                     1_GWF-(3,18,9)
 Package                           22            -1.40737069E-06                    1_GWF-SFR-1-(17)-inflow
 Model                             23          1  4.18793888E-11       *                    1_GWF-(4,18,10)
 Package                           23            -3.99551179E-07                    1_GWF-SFR-1-(17)-inflow
 Model                             24          1  1.48929757E-11       *                    1_GWF-(4,23,10)
 Package                           24            -1.13579465E-07                    1_GWF-SFR-1-(17)-inflow
 Model                             25          1 -1.11128884E-11       *                      1_GWF-(5,5,5)
 Package                           25            -3.15178513E-08                    1_GWF-SFR-1-(17)-inflow
 Model                             26          1 -1.36139988E-11       *                     1_GWF-(5,22,2)
 Package                           26            -9.15905690E-09                    1_GWF-SFR-1-(17)-inflow
 Model                             27          1 -1.16244792E-11       *                    1_GWF-(4,15,16)
 Package                           27            -2.53993388E-09                    1_GWF-SFR-1-(17)-inflow
 Model                             28          1  1.47792889E-11       *                     1_GWF-(5,2,15)
 Package                           28            -7.37085233E-10       *            1_GWF-SFR-1-(17)-inflow
 ----------------------------------------------------------------------------------------------------------


 28 CALLS TO NUMERICAL SOLUTION IN TIME STEP 197 STRESS PERIOD 1
 123 TOTAL ITERATIONS
 
    Solving:  Stress period:     1    Time step:   198
 

 SLN_1 OUTER ITERATION SUMMARY
 ----------------------------------------------------------------------------------------------------------
                                OUTER      INNER                    STEP   MAXIMUM CHANGE MODEL-(CELLID) OR
 OUTER ITERATION STEP       ITERATION  ITERATION  MAXIMUM CHANGE SUCCESS             MODEL-PACKAGE-(NUMBER)
 ----------------------------------------------------------------------------------------------------------
 Model                              1         10     -0.65227918                             1_GWF-(3,19,9)
 Model                              2         10      0.38891661                             1_GWF-(1,12,9)
 Model                              3          8      0.34774495                             1_GWF-(3,19,9)
 Model                              4          8      0.22711962                             1_GWF-(3,19,9)
 Model                              5          8  9.86076338E-02                             1_GWF-(3,19,9)
 Model                              6          8  3.65203925E-02                             1_GWF-(3,19,9)
 Model                              7          7  1.24696621E-02                             1_GWF-(3,19,9)
 Model                              8          7  4.05669907E-03                             1_GWF-(3,19,9)
 Model                              9          7  1.27835182E-03                             1_GWF-(3,19,9)
 Model                             10          6  3.93854636E-04                             1_GWF-(3,19,9)
 Model                             11          6  1.19327150E-04                             1_GWF-(3,19,9)
 Model                             12          5  3.56884200E-05                             1_GWF-(3,19,9)
 Model                             13          5  1.05649179E-05                             1_GWF-(3,19,9)
 Model                             14          4  3.10172523E-06                             1_GWF-(3,19,9)
 Model                             15          4  9.04436504E-07                             1_GWF-(3,19,9)
 Model                             16          3  2.62226891E-07                             1_GWF-(3,19,9)
 Model                             17          3  7.56636780E-08                             1_GWF-(3,19,9)
 Model                             18          2  2.17432614E-08                             1_GWF-(3,19,9)
 Model                             19          2  6.22591756E-09                             1_GWF-(3,19,9)
 Model                             20          2  1.77853110E-09                             1_GWF-(3,19,9)
 Model                             21          1  5.07611730E-10       *                    1_GWF-(3,18,10)
 Package                           21            -5.08439634E-06                    1_GWF-SFR-1-(17)-inflow
 Model                             22          1  1.44979140E-10       *                    1_GWF-(3,19,10)
 Package                           22            -1.44750729E-06                    1_GWF-SFR-1-(17)-inflow
 Model                             23          1  4.24051905E-11       *                    1_GWF-(4,19,11)
 Package                           23            -4.11219290E-07                    1_GWF-SFR-1-(17)-inflow
 Model                             24          1  1.46087586E-11       *                      1_GWF-(4,5,4)
 Package                           24            -1.17106084E-07                    1_GWF-SFR-1-(17)-inflow
 Model                             25          1 -1.57740487E-11       *                    1_GWF-(4,14,14)
 Package                           25            -3.28817139E-08                    1_GWF-SFR-1-(17)-inflow
 Model                             26          1 -1.43813850E-11       *                      1_GWF-(4,3,6)
 Package                           26            -9.48720627E-09                    1_GWF-SFR-1-(17)-inflow
 Model                             27          1 -1.35571554E-11       *                    1_GWF-(4,24,13)
 Package                           27            -2.92056600E-09                    1_GWF-SFR-1-(17)-inflow
 Model                             28          1 -1.24771304E-11       *                     1_GWF-(4,27,5)
 Package                           28            -6.37204489E-10       *            1_GWF-SFR-1-(17)-inflow
 ----------------------------------------------------------------------------------------------------------


 28 CALLS TO NUMERICAL SOLUTION IN TIME STEP 198 STRESS PERIOD 1
 123 TOTAL ITERATIONS
 
    Solving:  Stress period:     1    Time step:   199
 

 SLN_1 OUTER ITERATION SUMMARY
 ----------------------------------------------------------------------------------------------------------
                                OUTER      INNER                    STEP   MAXIMUM CHANGE MODEL-(CELLID) OR
 OUTER ITERATION STEP       ITERATION  ITERATION  MAXIMUM CHANGE SUCCESS             MODEL-PACKAGE-(NUMBER)
 ----------------------------------------------------------------------------------------------------------
 Model                              1         10     -0.65311684                             1_GWF-(3,19,9)
 Model                              2         10      0.38976313                             1_GWF-(1,12,9)
 Model                              3          8      0.34790037                             1_GWF-(3,19,9)
 Model                              4          8      0.22755161                             1_GWF-(3,19,9)
 Model                              5          8  9.89255872E-02                             1_GWF-(3,19,9)
 Model                              6          8  3.66847408E-02                             1_GWF-(3,19,9)
 Model                              7          7  1.25414609E-02                             1_GWF-(3,19,9)
 Model                              8          7  4.08513884E-03                             1_GWF-(3,19,9)
 Model                              9          7  1.28891557E-03                             1_GWF-(3,19,9)
 Model                             10          6  3.97603670E-04                             1_GWF-(3,19,9)
 Model                             11          6  1.20613143E-04                             1_GWF-(3,19,9)
 Model                             12          5  3.61180479E-05                             1_GWF-(3,19,9)
 Model                             13          5  1.07054576E-05                             1_GWF-(3,19,9)
 Model                             14          4  3.14692053E-06                             1_GWF-(3,19,9)
 Model                             15          4  9.18760875E-07                             1_GWF-(3,19,9)
 Model                             16          3  2.66715091E-07                             1_GWF-(3,19,9)
 Model                             17          3  7.70562991E-08                             1_GWF-(3,19,9)
 Model                             18          2  2.21703544E-08                             1_GWF-(3,19,9)
 Model                             19          2  6.35529318E-09                             1_GWF-(3,19,9)
 Model                             20          2  1.81731252E-09                             1_GWF-(3,19,9)
 Model                             21          1  5.20628873E-10       *                     1_GWF-(3,20,9)
 Package                           21            -5.22309349E-06                    1_GWF-SFR-1-(17)-inflow
 Model                             22          1  1.47949208E-10       *                    1_GWF-(3,19,10)
 Package                           22            -1.48847900E-06                    1_GWF-SFR-1-(17)-inflow
 Model                             23          1  4.33999503E-11       *                     1_GWF-(5,18,9)
 Package                           23            -4.24552066E-07                    1_GWF-SFR-1-(17)-inflow
 Model                             24          1  1.51771928E-11       *                     1_GWF-(4,21,8)
 Package                           24            -1.20448745E-07                    1_GWF-SFR-1-(17)-inflow
 Model                             25          1 -1.38697942E-11       *                     1_GWF-(3,14,3)
 Package                           25            -3.36843218E-08                    1_GWF-SFR-1-(17)-inflow
 Model                             26          1 -1.47792889E-11       *                     1_GWF-(4,24,4)
 Package                           26            -1.00627317E-08                    1_GWF-SFR-1-(17)-inflow
 Model                             27          1  1.41824330E-11       *                    1_GWF-(5,26,15)
 Package                           27            -2.65523765E-09                    1_GWF-SFR-1-(17)-inflow
 Model                             28          1 -1.53193014E-11       *                     1_GWF-(5,6,13)
 Package                           28            -1.04412687E-09                    1_GWF-SFR-1-(17)-inflow
 Model                             29          1 -1.24487087E-11       *                     1_GWF-(3,1,15)
 Package                           29            -2.21315455E-10       *             1_GWF-SFR-1-(5)-inflow
 ----------------------------------------------------------------------------------------------------------


 29 CALLS TO NUMERICAL SOLUTION IN TIME STEP 199 STRESS PERIOD 1
 124 TOTAL ITERATIONS
 
    Solving:  Stress period:     1    Time step:   200
 

 SLN_1 OUTER ITERATION SUMMARY
 ----------------------------------------------------------------------------------------------------------
                                OUTER      INNER                    STEP   MAXIMUM CHANGE MODEL-(CELLID) OR
 OUTER ITERATION STEP       ITERATION  ITERATION  MAXIMUM CHANGE SUCCESS             MODEL-PACKAGE-(NUMBER)
 ----------------------------------------------------------------------------------------------------------
 Model                              1         10     -0.65395212                             1_GWF-(3,19,9)
 Model                              2         10      0.39060975                             1_GWF-(1,12,9)
 Model                              3          8      0.34805435                             1_GWF-(3,19,9)
 Model                              4          8      0.22798253                             1_GWF-(3,19,9)
 Model                              5          8  9.92433147E-02                             1_GWF-(3,19,9)
 Model                              6          8  3.68492019E-02                             1_GWF-(3,19,9)
 Model                              7          7  1.26134024E-02                             1_GWF-(3,19,9)
 Model                              8          7  4.11367134E-03                             1_GWF-(3,19,9)
 Model                              9          7  1.29952710E-03                             1_GWF-(3,19,9)
 Model                             10          6  4.01374393E-04                             1_GWF-(3,19,9)
 Model                             11          6  1.21908193E-04                             1_GWF-(3,19,9)
 Model                             12          5  3.65512459E-05                             1_GWF-(3,19,9)
 Model                             13          5  1.08473449E-05                             1_GWF-(3,19,9)
 Model                             14          4  3.19260290E-06                             1_GWF-(3,19,9)
 Model                             15          4  9.33261759E-07                             1_GWF-(3,19,9)
 Model                             16          3  2.71263289E-07                             1_GWF-(3,19,9)
 Model                             17          3  7.84670959E-08                             1_GWF-(3,19,9)
 Model                             18          2  2.26052776E-08                             1_GWF-(3,19,9)
 Model                             19          2  6.48911680E-09                             1_GWF-(3,19,9)
 Model                             20          2  1.85822557E-09                             1_GWF-(3,19,9)
 Model                             21          1  5.30590683E-10       *                    1_GWF-(3,20,10)
 Package                           21            -5.36537106E-06                    1_GWF-SFR-1-(17)-inflow
 Model                             22          1  1.52297730E-10       *                     1_GWF-(3,19,9)
 Package                           22            -1.53183925E-06                    1_GWF-SFR-1-(17)-inflow
 Model                             23          1  4.41104930E-11       *                     1_GWF-(5,20,8)
 Package                           23            -4.36134370E-07                    1_GWF-SFR-1-(17)-inflow
 Model                             24          1  1.37418965E-11       *                     1_GWF-(4,17,9)
 Package                           24            -1.24553585E-07                    1_GWF-SFR-1-(17)-inflow
 Model                             25          1  1.66835434E-11       *                     1_GWF-(5,15,6)
 Package                           25            -3.51157041E-08                    1_GWF-SFR-1-(17)-inflow
 Model                             26          1 -1.21360699E-11       *                      1_GWF-(5,2,4)
 Package                           26            -9.98476726E-09                    1_GWF-SFR-1-(17)-inflow
 Model                             27          1  1.58308922E-11       *                     1_GWF-(4,12,3)
 Package                           27            -3.17612055E-09                    1_GWF-SFR-1-(17)-inflow
 Model                             28          1 -1.34434686E-11       *                     1_GWF-(3,4,16)
 Package                           28            -9.99798045E-10       *            1_GWF-SFR-1-(17)-inflow
 ----------------------------------------------------------------------------------------------------------


 28 CALLS TO NUMERICAL SOLUTION IN TIME STEP 200 STRESS PERIOD 1
 123 TOTAL ITERATIONS

 MEMORY MANAGER TOTAL STORAGE BY DATA TYPE, IN MEGABYTES
 -------------------------------
                    ALLOCATED   
 DATA TYPE           MEMORY     
 -------------------------------
 Character        1.04390000E-02
 Logical          4.40000000E-05
 Integer          0.59787200    
 Real             1.3462400     
 -------------------------------
 Total            1.9545950     
 Virtual          0.0000000     
 -------------------------------


 
 Run end date and time (yyyy/mm/dd hh:mm:ss): 2025/11/13 14:58:00
 Elapsed run time:  9.439 Seconds
 Normal termination of simulation.
