                                   MODFLOW 6
                U.S. GEOLOGICAL SURVEY MODULAR HYDROLOGIC MODEL
                          GROUNDWATER FLOW MODEL (GWF)
                   VERSION 6.3.0 release candidate 07/30/2021
                               ***DEVELOP MODE***

   MODFLOW 6 compiled Oct 27 2021 07:53:31 with IFORT compiler (ver. 20.21.1)

This software is preliminary or provisional and is subject to 
revision. It is being provided to meet the need for timely best 
science. The software has not received final approval by the U.S. 
Geological Survey (USGS). No warranty, expressed or implied, is made 
by the USGS or the U.S. Government as to the functionality of the 
software and related material nor shall the fact of release 
constitute any such warranty. The software is provided on the 
condition that neither the USGS nor the U.S. Government shall be held 
liable for any damages resulting from the authorized or unauthorized 
use of the software.


System command used to initiate simulation:
E:\15_REPOS\00_BETAMI\bin\mf6.exe

MODFLOW was compiled using uniform precision.

Real Variables
  KIND: 8
  TINY (smallest non-zero value):    2.225074-308
  HUGE (largest value):    1.797693+308
  PRECISION: 15
  BIT SIZE: 64

Integer Variables
  KIND: 4
  HUGE (largest value): 2147483647
  BIT SIZE: 32

Long Integer Variables
  KIND: 8
  HUGE (largest value): 9223372036854775807
  BIT SIZE: 64

Logical Variables
  KIND: 4
  BIT SIZE: 32
 

 OPENED Freyberg.dis
 FILE TYPE:DIS6                   UNIT 1005   STATUS:OLD                 
 FORMAT:FORMATTED              ACCESS:SEQUENTIAL          
 ACTION:READ                


 OPENED Freyberg.npf
 FILE TYPE:NPF6                   UNIT 1006   STATUS:OLD                 
 FORMAT:FORMATTED              ACCESS:SEQUENTIAL          
 ACTION:READ                


 OPENED Freyberg.ic
 FILE TYPE:IC6                    UNIT 1007   STATUS:OLD                 
 FORMAT:FORMATTED              ACCESS:SEQUENTIAL          
 ACTION:READ                


 OPENED Freyberg.riv
 FILE TYPE:RIV6                   UNIT 1008   STATUS:OLD                 
 FORMAT:FORMATTED              ACCESS:SEQUENTIAL          
 ACTION:READ                


 OPENED Freyberg.wel
 FILE TYPE:WEL6                   UNIT 1009   STATUS:OLD                 
 FORMAT:FORMATTED              ACCESS:SEQUENTIAL          
 ACTION:READ                


 OPENED Freyberg.rcha
 FILE TYPE:RCH6                   UNIT 1010   STATUS:OLD                 
 FORMAT:FORMATTED              ACCESS:SEQUENTIAL          
 ACTION:READ                


 OPENED Freyberg.chd
 FILE TYPE:CHD6                   UNIT 1011   STATUS:OLD                 
 FORMAT:FORMATTED              ACCESS:SEQUENTIAL          
 ACTION:READ                


 OPENED Freyberg.cf.wel
 FILE TYPE:WEL6                   UNIT 1012   STATUS:OLD                 
 FORMAT:FORMATTED              ACCESS:SEQUENTIAL          
 ACTION:READ                


 OPENED Freyberg.oc
 FILE TYPE:OC6                    UNIT 1013   STATUS:OLD                 
 FORMAT:FORMATTED              ACCESS:SEQUENTIAL          
 ACTION:READ                

 NAMEFILE OPTIONS:
    NEWTON-RAPHSON method enabled for the model.
    NEWTON-RAPHSON UNDER-RELAXATION based on the bottom elevation of the model will be applied to the model.

 DIS -- STRUCTURED GRID DISCRETIZATION PACKAGE, VERSION 2 : 3/27/2014 - INPUT READ FROM UNIT 1005


 # File generated by Flopy version 3.9.1 on 07/16/2025 at 14:52:37.
 PROCESSING DISCRETIZATION OPTIONS
    MODEL LENGTH UNIT IS METERS
 END OF DISCRETIZATION OPTIONS
 PROCESSING DISCRETIZATION DIMENSIONS
    NLAY =       1
    NROW =      40
    NCOL =      20
 END OF DISCRETIZATION DIMENSIONS
 PROCESSING GRIDDATA

                     DELR =   250.0000    

                     DELC =   250.0000    

 TOP ELEVATION OF LAYER 1 =   35.00000    
 END PROCESSING GRIDDATA

 THE SPECIFIED IDOMAIN RESULTS IN A REDUCED NUMBER OF CELLS.
 NUMBER OF USER NODES: 800
 NUMBER OF NODES IN SOLUTION: 705



 NPF -- NODE PROPERTY FLOW PACKAGE, VERSION 1, 3/30/2015 INPUT READ FROM UNIT 1006


 # File generated by Flopy version 3.9.1 on 07/16/2025 at 14:52:37.
 PROCESSING NPF OPTIONS
 END OF NPF OPTIONS

 WEL   -- WEL PACKAGE, VERSION 8, 2/22/2014 INPUT READ FROM UNIT 1009
 # File generated by Flopy version 3.9.1 on 07/16/2025 at 14:52:37.

 PROCESSING WEL OPTIONS
 END OF WEL OPTIONS

 PROCESSING WEL DIMENSIONS
    MAXBOUND =       6
 END OF WEL DIMENSIONS

 WEL   -- WEL PACKAGE, VERSION 8, 2/22/2014 INPUT READ FROM UNIT 1012
 # File generated by Flopy version 3.9.1 on 07/16/2025 at 14:52:37.

 PROCESSING WEL OPTIONS
 END OF WEL OPTIONS

 PROCESSING WEL DIMENSIONS
    MAXBOUND =       1
 END OF WEL DIMENSIONS

 RIV   -- RIV PACKAGE, VERSION 8, 2/22/2014 INPUT READ FROM UNIT 1008
 # File generated by Flopy version 3.9.1 on 07/16/2025 at 14:52:37.

 PROCESSING RIV OPTIONS
 END OF RIV OPTIONS

 PROCESSING RIV DIMENSIONS
    MAXBOUND =      40
 END OF RIV DIMENSIONS

 RCH   -- RCH PACKAGE, VERSION 8, 2/22/2014 INPUT READ FROM UNIT 1010
 # File generated by Flopy version 3.9.1 on 07/16/2025 at 14:52:37.

 PROCESSING RCH OPTIONS
    RECHARGE INPUT WILL BE READ AS ARRAY(S).
 END OF RCHA OPTIONS

 CHD   -- CHD PACKAGE, VERSION 8, 2/22/2014 INPUT READ FROM UNIT 1011
 # File generated by Flopy version 3.9.1 on 07/16/2025 at 14:52:37.

 PROCESSING CHD OPTIONS
 END OF CHD OPTIONS

 PROCESSING CHD DIMENSIONS
    MAXBOUND =      10
 END OF CHD DIMENSIONS

 IC -- INITIAL CONDITIONS PACKAGE, VERSION 8, 3/28/2015 INPUT READ FROM UNIT 1007
 # File generated by Flopy version 3.9.1 on 07/16/2025 at 14:52:37.
 PROCESSING IC OPTIONS
 END OF IC OPTIONS
 PROCESSING GRIDDATA

     INITIAL HEAD =   45.00000    
 END PROCESSING GRIDDATA
 PROCESSING GRIDDATA

                ICELLTYPE = 1
 K33 not provided.  Assuming K33 = K.
 K22 not provided.  Assuming K22 = K.
 END PROCESSING GRIDDATA
    BINARY GRID INFORMATION WILL BE WRITTEN TO:
      UNIT NUMBER: 1015
      FILE NAME: e:\15_REPOS\01__Beta-Me\01b\Freyberg.dis.grb

 OPENED e:\15_REPOS\01__Beta-Me\01b\Freyberg.dis.grb
 FILE TYPE:DATA(BINARY)   UNIT 1015   STATUS:REPLACE             
 FORMAT:UNFORMATTED            ACCESS:STREAM              
 ACTION:READWRITE           

      THE LAST TIME STEP WILL BE PRINTED
      THE LAST TIME STEP WILL BE PRINTED
 # File generated by Flopy version 3.9.1 on 07/16/2025 at 14:52:37.

 PROCESSING OC OPTIONS

    BUDGET INFORMATION WILL BE WRITTEN TO:
      UNIT NUMBER: 1016
      FILE NAME: Freyberg.bud

 OPENED Freyberg.bud
 FILE TYPE:DATA(BINARY)   UNIT 1016   STATUS:REPLACE             
 FORMAT:UNFORMATTED            ACCESS:STREAM              
 ACTION:READWRITE           

    HEAD INFORMATION WILL BE WRITTEN TO:
      UNIT NUMBER: 1017
      FILE NAME: Freyberg.hds

 OPENED Freyberg.hds
 FILE TYPE:DATA(BINARY)   UNIT 1017   STATUS:REPLACE             
 FORMAT:UNFORMATTED            ACCESS:STREAM              
 ACTION:READWRITE           

 END OF OC OPTIONS

start timestep kper="1" kstp="1" mode="normal"


 BEGIN READING OUTPUT CONTROL FOR STRESS PERIOD 1
      ALL TIME STEPS WILL BE SAVED
      ALL TIME STEPS WILL BE SAVED
      ALL TIME STEPS WILL BE PRINTED
      ALL TIME STEPS WILL BE PRINTED

 END READING OUTPUT CONTROL FOR STRESS PERIOD 1

 REUSING WELS FROM LAST STRESS PERIOD

                 RECHARGE =  0.1600000E-08
1
  HEAD IN LAYER   1 AT END OF TIME STEP   1 IN STRESS PERIOD    1
  ---------------------------------------------------------------------------

                1               2               3               4               5               6               7               8               9              10
               11              12              13              14              15              16              17              18              19              20
 ................................................................................................................................................................
   1      27.1729         27.0690         26.8354         26.4712         26.0552         25.5757         25.0159         24.5018         23.9178         23.3083    
          22.6570         22.0012         21.3240         20.6561         20.1117         20.0871         20.1151         20.1389         20.1593         20.1775    
   2      27.2083         27.0981         26.8566         26.4772         26.0906         25.6001         25.0276         24.4871         23.9009         23.2379    
          22.5729         21.9222         21.2355         20.5240         19.8986         19.9662         20.0372         20.0814         20.1085         20.1283    
   3      27.2702         27.1586         26.9022         26.5169         26.1384         25.6316         25.0290         24.4781         23.8422         23.1499    
          22.4307         21.7636         21.0438         20.3523         19.6750         19.8108         19.9006         19.9616         20.0036         20.0276    
   4      27.3914         27.2637         26.9900         26.6003         26.2008         25.6917         25.0397         24.4280         23.7489         22.9317    
          22.2016         21.5361         20.8526         20.1691         19.4487         19.5876         19.7187         19.7980         19.8494         19.8773    
   5      27.5561         27.4040         27.1178         26.7372         26.2941         25.7387         25.0862         24.3947         23.5182         22.6999    
          21.9818         21.3291         20.6372         19.9433         19.2242         19.3501         19.4597         19.5794         19.6487         19.6891    
   6      27.7225         27.6025         27.3073         26.9235         26.4254         25.8131         25.0838         24.2277         23.3886         22.4506    
          21.6849         21.0513         20.3830         19.7259         18.9960         19.0682         19.1895         19.3137         19.4259         19.4732    
   7      27.8870         27.7873         27.5439         27.1485         26.5738         25.8461         25.0686         24.0339         23.0636         22.0862    
          21.3679         20.7186         20.0953         19.4762         18.7582         18.6895         18.8519         19.0322         19.1630         19.2319    
   8      28.1256         28.0136         27.8016         27.4379         26.7145         25.8887         25.0050         23.6863         22.5310         21.6219    
          20.9510         20.3180         19.7439         19.1525         18.5170         18.0335         18.3627         18.6972         18.8940         18.9963    
   9      28.3646         28.2871         28.1484         28.0168        1.000000E+30    1.000000E+30    1.000000E+30     22.6089         21.6970         21.1003    
          20.5054         19.8814         19.3131         18.8056         18.2549         16.4181         17.8168         18.3797         18.6619         18.7775    
  10      28.5994         28.5353         28.4645         28.3909        1.000000E+30    1.000000E+30    1.000000E+30    1.000000E+30     20.9317         20.5580    
          20.0227         19.4097         18.7231         18.3968         18.0558         17.5848         17.9511         18.2902         18.5222         18.6263    
  11      28.7810         28.7397         28.6947         28.6594        1.000000E+30    1.000000E+30    1.000000E+30    1.000000E+30     20.3650         20.0825    
          19.6159         18.8718         17.5037         17.9427         17.8355         17.8325         18.0263         18.2500         18.4193         18.5077    
  12      28.8777         28.8670         28.8437         28.8247        1.000000E+30    1.000000E+30    1.000000E+30    1.000000E+30     19.9348         19.7235    
          19.3266         18.7815         18.1191         17.8796         17.6166         17.8028         18.0064         18.1814         18.3230         18.3912    
  13      28.9251         28.9203         28.9085         28.8924        1.000000E+30    1.000000E+30    1.000000E+30    1.000000E+30     19.6512         19.4749    
          19.1120         18.6650         18.1988         17.7949         17.3977         17.6565         17.9029         18.0816         18.2116         18.2777    
  14      28.9182         28.9159         28.9007         28.8841        1.000000E+30    1.000000E+30    1.000000E+30    1.000000E+30     19.4619         19.2844    
          18.9681         18.5752         18.1159         17.6528         17.1764         17.4986         17.7798         17.9673         18.0842         18.1394    
  15      28.8510         28.8486         28.8314         28.8207        1.000000E+30    1.000000E+30    1.000000E+30    1.000000E+30     19.3186         19.1503    
          18.8301         18.4365         18.0006         17.5118         16.9469         17.3191         17.6400         17.8375         17.9557         18.0081    
  16      28.7269         28.7186         28.7057         28.7021        1.000000E+30    1.000000E+30    1.000000E+30    1.000000E+30     19.2222         19.0414    
          18.7132         18.2851         17.8337         17.3169         16.7206         17.1262         17.4716         17.6877         17.8149         17.8712    
  17      28.5445         28.5311         28.5216         28.5249        1.000000E+30    1.000000E+30    1.000000E+30    1.000000E+30     19.1700         18.9844    
          18.6030         18.1419         17.6473         17.0951         16.4931         16.9191         17.2813         17.5286         17.6625         17.7194    
  18      28.3267         28.3105         28.2869         28.2900        1.000000E+30    1.000000E+30    1.000000E+30    1.000000E+30     19.2010         18.9725    
          18.5651         18.0248         17.4065         16.8060         16.2664         16.7125         17.0779         17.3469         17.4975         17.5680    
  19      28.0474         28.0281         28.0016         27.9873        1.000000E+30    1.000000E+30    1.000000E+30    1.000000E+30     19.3156         19.0541    
          18.5903         17.9221         17.0971         16.3258         16.0345         16.5112         16.8987         17.1818         17.3404         17.4176    
  20      27.7157         27.6937         27.6527         27.6127        1.000000E+30    1.000000E+30    1.000000E+30    1.000000E+30     19.5376         19.2223    
          18.6722         17.8631         16.7650         15.2661         15.7925         16.3151         16.7173         17.0147         17.1924         17.2624    
  21      27.3474         27.3101         27.2416         27.1833        1.000000E+30    1.000000E+30    1.000000E+30    1.000000E+30     19.8872         19.4695    
          18.8486         18.0230         16.9482         15.9320         15.5817         16.1233         16.5432         16.8432         17.0323         17.1131    
  22      26.9590         26.8808         26.7764         26.6818        1.000000E+30    1.000000E+30     21.6472         21.2394         20.4200         19.8189    
          19.0577         18.1577         17.0616         16.0787         15.3626         15.9301         16.3861         16.6836         16.8667         16.9618    
  23      26.5202         26.4332         26.2826         26.0247         25.4888        1.000000E+30     21.9483         21.4916         20.7359         20.0743    
          19.2100         18.2688         17.1023         16.0273         15.1403         15.7274         16.2108         16.5492         16.7304         16.8232    
  24      26.1358         26.0169         25.8146         25.4782         24.8180         23.7084         22.5752         21.7462         21.0102         20.2172    
          19.2950         18.2832         17.0968         15.9252         14.9154         15.5661         16.0629         16.3925         16.5981         16.6931    
  25      25.7603         25.6333         25.4080         25.0464         24.3603         23.5312         22.7437         21.9645         21.1190         20.1936    
          19.3153         18.2540         17.0178         15.7734         14.6908         15.3619         15.9282         16.2572         16.4704         16.5664    
  26      25.4089         25.2891         25.0601         24.6244         24.0570         23.4241         22.7432         21.9980         21.1574         20.1163    
          19.2318         18.0940         16.8702         15.6438         14.4696         15.1950         15.7871         16.1336         16.3588         16.4598    
  27      25.0849         24.9594         24.7278         24.3749         23.8648         23.3082         22.7261         21.9982         21.1726         20.3513    
          19.1218         17.8205         16.7849         15.5712         14.2341         15.0442         15.6667         16.0383         16.2593         16.3625    
  28      24.8023         24.6681         24.4558         24.1238         23.6903         23.2367         22.6948         21.8963         21.0269         20.1328    
          18.9131         17.7150         16.6448         15.4202         14.0075         14.8813         15.5537         15.9494         16.1663         16.2725    
  29      24.5347         24.4019         24.2052         23.9015         23.5341         23.0674         22.7336         21.7908         20.6798         19.8911    
          18.7126         17.4606         16.4441         15.2056         13.7778         14.7189         15.4637         15.8672         16.0866         16.1857    
  30      24.2892         24.1753         23.9721         23.7058         23.4337         23.1452         22.6326         21.6395         20.5014         19.4840    
          18.2927         17.0817         16.1101         14.9676         13.5518         14.5364         15.3264         15.7614         15.9783         16.0764    
  31      24.1061         23.9837         23.7658         23.5054         23.2205         22.9251         22.3656         21.2920         20.1842         19.0968    
          17.8301         16.7066         15.7540         14.7400         13.3178         14.3573         15.1452         15.6142         15.8237         15.8995    
  32      23.9941         23.7774         23.5121         23.1682         22.9036         22.5886         21.9386         20.8926         19.9515         18.6778    
          17.4110         16.1445         15.2818         14.3913         13.0822         14.0825         14.8373         15.3259         15.5782         15.6560    
  33     1.000000E+30     23.5440         23.2330         22.8551         22.5111         22.0796         21.4362         20.8902         19.7589         18.0106    
          16.6365         14.8197         14.3789         13.6816         12.8612         13.6585         14.4453         14.9889         15.2806         15.3907    
  34     1.000000E+30    1.000000E+30     22.8958         22.4880         22.0857         21.6161         21.0127         20.3638         19.2722         17.8656    
          15.7317         11.1838         13.1861         13.2118         12.6310         13.4780         14.1747         14.7207         15.0181         15.1736    
  35     1.000000E+30    1.000000E+30    1.000000E+30     22.0806         21.5313         21.0566         20.5437         19.9602         19.1084         17.9073    
          16.2766         14.1380         13.5702         13.0776         12.4059         13.2769         13.9386         14.4710         14.7821         15.0337    
  36     1.000000E+30    1.000000E+30    1.000000E+30    1.000000E+30     20.8037         20.4382         19.9926         19.4393         18.7736         17.7448    
          16.3443         15.0351         13.8792         13.0013         12.1814         13.0814         13.7448         14.2152         14.4627        1.000000E+30
  37     1.000000E+30    1.000000E+30    1.000000E+30    1.000000E+30     20.3658         19.7765         19.2941         18.7480         18.2215         17.4125    
          16.2345         15.1652         14.0467         12.9412         11.9554         12.9381         13.5440         13.9903         14.2938        1.000000E+30
  38     1.000000E+30    1.000000E+30    1.000000E+30    1.000000E+30    1.000000E+30     18.6931         18.3695         17.9813         17.6289         16.8928    
          15.7929         14.8885         13.9525         12.8582         11.7227         12.7721         13.3270         13.7498        1.000000E+30    1.000000E+30
  39     1.000000E+30    1.000000E+30    1.000000E+30    1.000000E+30    1.000000E+30     17.7076         17.5020         17.1527         16.8583         16.0610    
          15.0666         14.2671         13.4880         12.5768         11.4957         12.6100         13.0593        1.000000E+30    1.000000E+30    1.000000E+30
  40     1.000000E+30    1.000000E+30    1.000000E+30    1.000000E+30    1.000000E+30     16.9000         16.4000         16.1000         15.6000         15.1000    
          14.0000         13.0000         12.5000         12.0000         11.4000        1.000000E+30    1.000000E+30    1.000000E+30    1.000000E+30    1.000000E+30

 HEAD WILL BE SAVED ON UNIT 1017 AT END OF TIME STEP    1, STRESS PERIOD    1


  VOLUME BUDGET FOR ENTIRE MODEL AT END OF TIME STEP    1, STRESS PERIOD   1
  ---------------------------------------------------------------------------------------------------

     CUMULATIVE VOLUME      L**3       RATES FOR THIS TIME STEP      L**3/T          PACKAGE NAME    
     ------------------                 ------------------------                     ----------------

           IN:                                      IN:
           ---                                      ---
                 WEL =           0.0000                   WEL =           0.0000     WEL-1           
                 WEL =           0.0000                   WEL =           0.0000     CF-1            
                 RIV =       1.5795E-03                   RIV =       1.5795E-03     RIV-1           
                RCHA =       6.9500E-02                  RCHA =       6.9500E-02     RCHA_0          
                 CHD =           0.0000                   CHD =           0.0000     CHD_0           

            TOTAL IN =       7.1079E-02              TOTAL IN =       7.1079E-02

          OUT:                                     OUT:
          ----                                     ----
                 WEL =       2.2050E-02                   WEL =       2.2050E-02     WEL-1           
                 WEL =           0.0000                   WEL =           0.0000     CF-1            
                 RIV =       4.4348E-02                   RIV =       4.4348E-02     RIV-1           
                RCHA =           0.0000                  RCHA =           0.0000     RCHA_0          
                 CHD =       4.6818E-03                   CHD =       4.6818E-03     CHD_0           

           TOTAL OUT =       7.1079E-02             TOTAL OUT =       7.1079E-02

            IN - OUT =      -8.4878E-09              IN - OUT =      -8.4878E-09

 PERCENT DISCREPANCY =          -0.00     PERCENT DISCREPANCY =          -0.00




         TIME SUMMARY AT END OF TIME STEP    1 IN STRESS PERIOD    1
                    SECONDS     MINUTES      HOURS       DAYS        YEARS
                    -----------------------------------------------------------
   TIME STEP LENGTH  1.0000     1.66667E-02 2.77778E-04 1.15741E-05 3.16881E-08
 STRESS PERIOD TIME  1.0000     1.66667E-02 2.77778E-04 1.15741E-05 3.16881E-08
         TOTAL TIME  1.0000     1.66667E-02 2.77778E-04 1.15741E-05 3.16881E-08


end timestep

