                                   MODFLOW 6
                U.S. GEOLOGICAL SURVEY MODULAR HYDROLOGIC MODEL
                          GROUNDWATER FLOW MODEL (GWF)
                   VERSION 6.3.0 release candidate 07/30/2021
                               ***DEVELOP MODE***

   MODFLOW 6 compiled Oct 27 2021 07:53:31 with IFORT compiler (ver. 20.21.1)

This software is preliminary or provisional and is subject to 
revision. It is being provided to meet the need for timely best 
science. The software has not received final approval by the U.S. 
Geological Survey (USGS). No warranty, expressed or implied, is made 
by the USGS or the U.S. Government as to the functionality of the 
software and related material nor shall the fact of release 
constitute any such warranty. The software is provided on the 
condition that neither the USGS nor the U.S. Government shall be held 
liable for any damages resulting from the authorized or unauthorized 
use of the software.


System command used to initiate simulation:
E:\15_REPOS\00_BETAMI\bin\mf6.exe

MODFLOW was compiled using uniform precision.

Real Variables
  KIND: 8
  TINY (smallest non-zero value):    2.225074-308
  HUGE (largest value):    1.797693+308
  PRECISION: 15
  BIT SIZE: 64

Integer Variables
  KIND: 4
  HUGE (largest value): 2147483647
  BIT SIZE: 32

Long Integer Variables
  KIND: 8
  HUGE (largest value): 9223372036854775807
  BIT SIZE: 64

Logical Variables
  KIND: 4
  BIT SIZE: 32
 

 OPENED Freyberg.dis
 FILE TYPE:DIS6                   UNIT 1005   STATUS:OLD                 
 FORMAT:FORMATTED              ACCESS:SEQUENTIAL          
 ACTION:READ                


 OPENED Freyberg.npf
 FILE TYPE:NPF6                   UNIT 1006   STATUS:OLD                 
 FORMAT:FORMATTED              ACCESS:SEQUENTIAL          
 ACTION:READ                


 OPENED Freyberg.ic
 FILE TYPE:IC6                    UNIT 1007   STATUS:OLD                 
 FORMAT:FORMATTED              ACCESS:SEQUENTIAL          
 ACTION:READ                


 OPENED Freyberg.riv
 FILE TYPE:RIV6                   UNIT 1008   STATUS:OLD                 
 FORMAT:FORMATTED              ACCESS:SEQUENTIAL          
 ACTION:READ                


 OPENED Freyberg.wel
 FILE TYPE:WEL6                   UNIT 1009   STATUS:OLD                 
 FORMAT:FORMATTED              ACCESS:SEQUENTIAL          
 ACTION:READ                


 OPENED Freyberg.rcha
 FILE TYPE:RCH6                   UNIT 1010   STATUS:OLD                 
 FORMAT:FORMATTED              ACCESS:SEQUENTIAL          
 ACTION:READ                


 OPENED Freyberg.chd
 FILE TYPE:CHD6                   UNIT 1011   STATUS:OLD                 
 FORMAT:FORMATTED              ACCESS:SEQUENTIAL          
 ACTION:READ                


 OPENED Freyberg.cf.wel
 FILE TYPE:WEL6                   UNIT 1012   STATUS:OLD                 
 FORMAT:FORMATTED              ACCESS:SEQUENTIAL          
 ACTION:READ                


 OPENED Freyberg.oc
 FILE TYPE:OC6                    UNIT 1013   STATUS:OLD                 
 FORMAT:FORMATTED              ACCESS:SEQUENTIAL          
 ACTION:READ                


 OPENED freyberg_0.wel
 FILE TYPE:WEL6                   UNIT 1014   STATUS:OLD                 
 FORMAT:FORMATTED              ACCESS:SEQUENTIAL          
 ACTION:READ                

 NAMEFILE OPTIONS:
    NEWTON-RAPHSON method enabled for the model.
    NEWTON-RAPHSON UNDER-RELAXATION based on the bottom elevation of the model will be applied to the model.

 DIS -- STRUCTURED GRID DISCRETIZATION PACKAGE, VERSION 2 : 3/27/2014 - INPUT READ FROM UNIT 1005


 # File generated by Flopy version 3.9.1 on 07/16/2025 at 14:53:48.
 PROCESSING DISCRETIZATION OPTIONS
    MODEL LENGTH UNIT IS METERS
 END OF DISCRETIZATION OPTIONS
 PROCESSING DISCRETIZATION DIMENSIONS
    NLAY =       1
    NROW =      40
    NCOL =      20
 END OF DISCRETIZATION DIMENSIONS
 PROCESSING GRIDDATA

                     DELR =   250.0000    

                     DELC =   250.0000    

 TOP ELEVATION OF LAYER 1 =   35.00000    
 END PROCESSING GRIDDATA

 THE SPECIFIED IDOMAIN RESULTS IN A REDUCED NUMBER OF CELLS.
 NUMBER OF USER NODES: 800
 NUMBER OF NODES IN SOLUTION: 705



 NPF -- NODE PROPERTY FLOW PACKAGE, VERSION 1, 3/30/2015 INPUT READ FROM UNIT 1006


 # File generated by Flopy version 3.9.1 on 07/16/2025 at 14:53:48.
 PROCESSING NPF OPTIONS
 END OF NPF OPTIONS

 WEL   -- WEL PACKAGE, VERSION 8, 2/22/2014 INPUT READ FROM UNIT 1009
 # File generated by Flopy version 3.9.1 on 07/16/2025 at 14:53:48.

 PROCESSING WEL OPTIONS
 END OF WEL OPTIONS

 PROCESSING WEL DIMENSIONS
    MAXBOUND =       6
 END OF WEL DIMENSIONS

 WEL   -- WEL PACKAGE, VERSION 8, 2/22/2014 INPUT READ FROM UNIT 1012
 # File generated by Flopy version 3.9.1 on 07/16/2025 at 14:53:48.

 PROCESSING WEL OPTIONS
 END OF WEL OPTIONS

 PROCESSING WEL DIMENSIONS
    MAXBOUND =       1
 END OF WEL DIMENSIONS

 WEL   -- WEL PACKAGE, VERSION 8, 2/22/2014 INPUT READ FROM UNIT 1014
 # File generated by Flopy version 3.9.1 on 07/16/2025 at 14:53:48.

 PROCESSING WEL OPTIONS
 END OF WEL OPTIONS

 PROCESSING WEL DIMENSIONS
    MAXBOUND =       7
 END OF WEL DIMENSIONS

 RIV   -- RIV PACKAGE, VERSION 8, 2/22/2014 INPUT READ FROM UNIT 1008
 # File generated by Flopy version 3.9.1 on 07/16/2025 at 14:53:48.

 PROCESSING RIV OPTIONS
 END OF RIV OPTIONS

 PROCESSING RIV DIMENSIONS
    MAXBOUND =      40
 END OF RIV DIMENSIONS

 RCH   -- RCH PACKAGE, VERSION 8, 2/22/2014 INPUT READ FROM UNIT 1010
 # File generated by Flopy version 3.9.1 on 07/16/2025 at 14:53:48.

 PROCESSING RCH OPTIONS
    RECHARGE INPUT WILL BE READ AS ARRAY(S).
 END OF RCHA OPTIONS

 CHD   -- CHD PACKAGE, VERSION 8, 2/22/2014 INPUT READ FROM UNIT 1011
 # File generated by Flopy version 3.9.1 on 07/16/2025 at 14:53:48.

 PROCESSING CHD OPTIONS
 END OF CHD OPTIONS

 PROCESSING CHD DIMENSIONS
    MAXBOUND =      10
 END OF CHD DIMENSIONS

 IC -- INITIAL CONDITIONS PACKAGE, VERSION 8, 3/28/2015 INPUT READ FROM UNIT 1007
 # File generated by Flopy version 3.9.1 on 07/16/2025 at 14:53:48.
 PROCESSING IC OPTIONS
 END OF IC OPTIONS
 PROCESSING GRIDDATA

     INITIAL HEAD =   45.00000    
 END PROCESSING GRIDDATA
 PROCESSING GRIDDATA

                ICELLTYPE = 1
 K33 not provided.  Assuming K33 = K.
 K22 not provided.  Assuming K22 = K.
 END PROCESSING GRIDDATA
    BINARY GRID INFORMATION WILL BE WRITTEN TO:
      UNIT NUMBER: 1016
      FILE NAME: e:\15_REPOS\01__Beta-Me\data\Freyberg\Freyberg.dis.grb

 OPENED e:\15_REPOS\01__Beta-Me\data\Freyberg\Freyberg.dis.grb
 FILE TYPE:DATA(BINARY)   UNIT 1016   STATUS:REPLACE             
 FORMAT:UNFORMATTED            ACCESS:STREAM              
 ACTION:READWRITE           

      THE LAST TIME STEP WILL BE PRINTED
      THE LAST TIME STEP WILL BE PRINTED
 # File generated by Flopy version 3.9.1 on 07/16/2025 at 14:53:48.

 PROCESSING OC OPTIONS

    BUDGET INFORMATION WILL BE WRITTEN TO:
      UNIT NUMBER: 1017
      FILE NAME: Freyberg.bud

 OPENED Freyberg.bud
 FILE TYPE:DATA(BINARY)   UNIT 1017   STATUS:REPLACE             
 FORMAT:UNFORMATTED            ACCESS:STREAM              
 ACTION:READWRITE           

    HEAD INFORMATION WILL BE WRITTEN TO:
      UNIT NUMBER: 1018
      FILE NAME: Freyberg.hds

 OPENED Freyberg.hds
 FILE TYPE:DATA(BINARY)   UNIT 1018   STATUS:REPLACE             
 FORMAT:UNFORMATTED            ACCESS:STREAM              
 ACTION:READWRITE           

 END OF OC OPTIONS

start timestep kper="1" kstp="1" mode="normal"


 BEGIN READING OUTPUT CONTROL FOR STRESS PERIOD 1
      ALL TIME STEPS WILL BE SAVED
      ALL TIME STEPS WILL BE SAVED
      ALL TIME STEPS WILL BE PRINTED
      ALL TIME STEPS WILL BE PRINTED

 END READING OUTPUT CONTROL FOR STRESS PERIOD 1

 REUSING WELS FROM LAST STRESS PERIOD

                 RECHARGE =  0.1600000E-08
1
  HEAD IN LAYER   1 AT END OF TIME STEP   1 IN STRESS PERIOD    1
  ---------------------------------------------------------------------------

                1               2               3               4               5               6               7               8               9              10
               11              12              13              14              15              16              17              18              19              20
 ................................................................................................................................................................
   1      21.7503         21.5453         21.0167         20.0460         19.4481         19.0926         18.9280         19.0436         19.2103         19.3668    
          19.5150         19.6486         19.7878         19.9195         20.0890         20.0641         20.0922         20.1162         20.1366         20.1549    
   2      21.8289         21.5352         20.9585         19.7973         19.1759         18.6737         18.6441         18.8561         19.1170         19.3009    
          19.4502         19.5772         19.6968         19.7906         19.8748         19.9428         20.0141         20.0586         20.0858         20.1056    
   3      21.9229         21.6652         20.9027         19.5379         18.5960         17.4729         17.9301         18.5255         18.9114         19.1728    
          19.3268         19.4452         19.5419         19.6108         19.6514         19.7871         19.8773         19.9385         19.9808         20.0049    
   4      22.1593         21.8823         21.1366         19.4820         17.6003         15.7680         16.9894         18.1290         18.7771         19.0160    
          19.1444         19.2433         19.3286         19.3960         19.4233         19.5630         19.6950         19.7748         19.8265         19.8545    
   5      22.4999         22.1261         21.3940         20.2891         19.1106         17.4435         17.7380         18.4993         18.7676         18.8664    
          18.9411         19.0242         19.1066         19.1696         19.1970         19.3249         19.4357         19.5561         19.6258         19.6663    
   6      22.7594         22.5558         21.9058         21.0755         20.1852         19.3743         18.9588         18.8066         18.7336         18.6341    
          18.6517         18.7306         18.8279         18.9232         18.9693         19.0433         19.1655         19.2903         19.4030         19.4506    
   7      23.0092         22.8492         22.4477         21.7589         21.0195         20.1196         19.5999         18.8935         18.4419         18.0658    
          18.1498         18.2970         18.4627         18.6252         18.7358         18.6655         18.8282         19.0090         19.1402         19.2094    
   8      23.4754         23.2533         22.9392         22.4080         21.5253         20.5528         19.7664         18.6686         17.6925         17.1139    
          17.3860         17.7126         18.0147         18.2723         18.4919         18.0087         18.3388         18.6742         18.8715         18.9741    
   9      23.8501         23.6996         23.4902         23.3294        1.000000E+30    1.000000E+30    1.000000E+30     17.1614         15.9420         15.3948    
          16.3171         17.0158         17.4659         17.8923         18.2304         16.3914         17.7930         18.3570         18.6398         18.7557    
  10      24.2471         24.0966         24.0014         23.8887        1.000000E+30    1.000000E+30    1.000000E+30    1.000000E+30     14.8200         12.3732    
          15.2003         16.3235         16.8102         17.4876         18.0319         17.5612         17.9286         18.2683         18.5008         18.6050    
  11      24.5144         24.4247         24.3506         24.3044        1.000000E+30    1.000000E+30    1.000000E+30    1.000000E+30     15.3259         14.8355    
          15.5788         16.0453         15.6510         17.1098         17.8139         17.8111         18.0052         18.2292         18.3987         18.4871    
  12      24.6432         24.6212         24.5834         24.5567        1.000000E+30    1.000000E+30    1.000000E+30    1.000000E+30     15.9624         15.8693    
          16.1365         16.4292         16.5908         17.1592         17.5984         17.7834         17.9867         18.1616         18.3032         18.3713    
  13      24.7167         24.7056         24.6871         24.6634        1.000000E+30    1.000000E+30    1.000000E+30    1.000000E+30     16.4139         16.4267    
          16.5542         16.7197         16.8903         17.1523         17.3792         17.6382         17.8843         18.0627         18.1925         18.2585    
  14      24.7199         24.7127         24.6882         24.6639        1.000000E+30    1.000000E+30    1.000000E+30    1.000000E+30     16.7476         16.7575    
          16.8118         16.8874         16.9868         17.0965         17.1599         17.4818         17.7623         17.9492         18.0656         18.1206    
  15      24.6409         24.6354         24.6061         24.5893        1.000000E+30    1.000000E+30    1.000000E+30    1.000000E+30     16.9615         16.9517    
          16.9502         16.9577         16.9726         16.9812         16.9351         17.3043         17.6234         17.8198         17.9374         17.9894    
  16      24.4904         24.4757         24.4504         24.4438        1.000000E+30    1.000000E+30    1.000000E+30    1.000000E+30     17.0672         17.0246    
          16.9839         16.9277         16.8761         16.8127         16.7094         17.1122         17.4554         17.6700         17.7965         17.8523    
  17      24.2548         24.2277         24.2154         24.2223        1.000000E+30    1.000000E+30    1.000000E+30    1.000000E+30     17.0543         16.9976    
          16.9097         16.8106         16.7012         16.5931         16.4821         16.9051         17.2649         17.5106         17.6435         17.6999    
  18      23.9832         23.9528         23.9161         23.9236        1.000000E+30    1.000000E+30    1.000000E+30    1.000000E+30     16.9584         16.8704    
          16.7518         16.6188         16.4326         16.2863         16.2549         16.6979         17.0607         17.3278         17.4773         17.5472    
  19      23.6274         23.5948         23.5520         23.5389        1.000000E+30    1.000000E+30    1.000000E+30    1.000000E+30     16.7362         16.6506    
          16.5138         16.3091         16.0194         15.7557         16.0224         16.4955         16.8801         17.1611         17.3184         17.3951    
  20      23.1995         23.1581         23.0987         23.0521        1.000000E+30    1.000000E+30    1.000000E+30    1.000000E+30     16.4729         16.3600    
          16.1977         15.9216         15.4771         14.5586         15.7791         16.2974         16.6964         16.9916         17.1680         17.2373    
  21      22.7081         22.6553         22.5674         22.4896        1.000000E+30    1.000000E+30    1.000000E+30    1.000000E+30     16.1674         16.0434    
          15.8492         15.6256         15.3637         15.1550         15.5655         16.1025         16.5188         16.8166         17.0044         17.0847    
  22      22.2064         22.0828         21.9391         21.8304        1.000000E+30    1.000000E+30     16.3225         16.1587         15.9014         15.7055    
          15.4047         15.1749         15.0596         15.0949         15.3426         15.9046         16.3571         16.6525         16.8345         16.9294    
  23      21.5749         21.4593         21.2803         20.9783         20.2918        1.000000E+30     16.3704         16.0582         15.6532         15.2677    
          14.7861         14.4005         14.4211         14.7179         15.1136         15.6954         16.1754         16.5126         16.6932         16.7861    
  24      21.0470         20.8665         20.6240         20.2386         19.4146         17.9707         16.6116         16.1057         15.4649         14.7705    
          14.0135         13.2041         13.2868         14.0276         14.8764         15.5235         16.0187         16.3490         16.5553         16.6508    
  25      20.4717         20.2785         19.9946         19.5902         18.6782         17.6775         16.8388         16.0713         15.1767         14.3716    
          13.4239         11.3047         11.0383         12.8574         14.6305         15.3031         15.8740         16.2061         16.4217         16.5187    
  26      19.8765         19.6996         19.4101         18.8065         18.1268         17.4252         16.7204         16.0345         15.2647         14.2833    
          14.5938         7.39805         5.73404         10.8068         14.3678         15.1161         15.7222         16.0756         16.3047         16.4073    
  27      19.2388         19.0637         18.7467         18.2970         17.6987         17.1462         16.6783         16.1511         15.9965         16.3858    
          21.5142        0.541590         1.27611         6.95696         14.1171         14.9543         15.5947         15.9752         16.2008         16.3061    
  28      18.6504         18.4323         18.1277         17.6972         17.2261         16.8678         16.6842         16.8398         18.5276         27.6007    
          32.3029        0.339060         1.60719         5.68368         13.8799         14.7863         15.4785         15.8837         16.1053         16.2137    
  29      17.9818         17.7608         17.4644         17.0424         16.7209         16.4036         16.7170         18.6897         26.8775         50.9792    
          332.394         306.320        0.791216         6.18408         13.6651         14.6321         15.3915         15.8020         16.0252         16.1260    
  30      17.2533         17.1350         16.7686         16.3699         16.1570         16.0453         16.0813         16.2029         22.1727         30.1628    
          39.0982         40.2523         16.7083         11.5449         13.5047         14.4727         15.2605         15.6982         15.9176         16.0171    
  31      16.7799         16.5645         16.1059         15.5887         15.3838         15.2740         15.8374         14.3024         16.8102         26.4095    
          53.7697         20.8564         11.6265         10.7671         13.2757         14.2972         15.0811         15.5525         15.7645         15.8414    
  32      16.4688         15.9908         15.2981         14.5203         14.2398         14.2549         15.0078         14.8426         13.9853         15.9554    
          22.8285         19.6059         9.94535         7.84035         13.0356         14.0075         14.7686         15.2645         15.5204         15.5996    
  33     1.000000E+30     15.5102         15.0575         13.0444         12.7819         13.6951         16.8266         16.0167         13.2674         13.7992    
          16.5961         20.4984         8.74624        0.465410         12.6523         13.5453         14.3692         14.9282         15.2246         15.3363    
  34     1.000000E+30    1.000000E+30     12.4536         9.85312         6.68490         8.53133         124.618         28.5396         14.8366         12.2746    
          13.4332        0.660050         5.77316         7.53509         12.5659         13.4071         14.1135         14.6655         14.9657         15.1216    
  35     1.000000E+30    1.000000E+30    1.000000E+30     7.36022         5.53683         5.13366         5.28450         6.24242         11.2613         11.0406    
          10.4591         7.17677         9.16987         10.3072         12.3741         13.2309         13.8907         14.4233         14.7343         14.9838    
  36     1.000000E+30    1.000000E+30    1.000000E+30    1.000000E+30     4.55640         4.89584         5.63454         8.02039         10.4786         11.2314    
          11.2010         10.6670         10.8196         11.3955         12.1611         13.0493         13.7073         14.1747         14.4203        1.000000E+30
  37     1.000000E+30    1.000000E+30    1.000000E+30    1.000000E+30     6.09851         6.67682         8.57125         10.5377         11.6156         12.0895    
          12.1060         11.9408         11.8304         11.8305         11.9432         12.9142         13.5134         13.9551         14.2547        1.000000E+30
  38     1.000000E+30    1.000000E+30    1.000000E+30    1.000000E+30    1.000000E+30     11.6499         12.1379         12.6877         13.0089         13.1878    
          12.9825         12.6841         12.4502         12.0942         11.7178         12.7538         13.3019         13.7193        1.000000E+30    1.000000E+30
  39     1.000000E+30    1.000000E+30    1.000000E+30    1.000000E+30    1.000000E+30     14.5936         14.5102         14.4886         14.2747         14.2187    
          13.6381         13.0744         12.6775         12.1668         11.4931         12.5950         13.0390        1.000000E+30    1.000000E+30    1.000000E+30
  40     1.000000E+30    1.000000E+30    1.000000E+30    1.000000E+30    1.000000E+30     16.9000         16.4000         16.1000         15.6000         15.1000    
          14.0000         13.0000         12.5000         12.0000         11.4000        1.000000E+30    1.000000E+30    1.000000E+30    1.000000E+30    1.000000E+30

 HEAD WILL BE SAVED ON UNIT 1018 AT END OF TIME STEP    1, STRESS PERIOD    1


  VOLUME BUDGET FOR ENTIRE MODEL AT END OF TIME STEP    1, STRESS PERIOD   1
  ---------------------------------------------------------------------------------------------------

     CUMULATIVE VOLUME      L**3       RATES FOR THIS TIME STEP      L**3/T          PACKAGE NAME    
     ------------------                 ------------------------                     ----------------

           IN:                                      IN:
           ---                                      ---
                 WEL =           0.0000                   WEL =           0.0000     WEL-1           
                 WEL =           0.0000                   WEL =           0.0000     CF-1            
                 WEL =           0.0000                   WEL =           0.0000     WEL_0           
                 RIV =       3.9603E-02                   RIV =       3.9603E-02     RIV-1           
                RCHA =       6.9500E-02                  RCHA =       6.9500E-02     RCHA_0          
                 CHD =       5.5827E-03                   CHD =       5.5827E-03     CHD_0           

            TOTAL IN =           0.1147              TOTAL IN =           0.1147

          OUT:                                     OUT:
          ----                                     ----
                 WEL =       2.2050E-02                   WEL =       2.2050E-02     WEL-1           
                 WEL =           0.0000                   WEL =           0.0000     CF-1            
                 WEL =       8.4360E-02                   WEL =       8.4360E-02     WEL_0           
                 RIV =       7.6781E-03                   RIV =       7.6781E-03     RIV-1           
                RCHA =           0.0000                  RCHA =           0.0000     RCHA_0          
                 CHD =       1.3772E-04                   CHD =       1.3772E-04     CHD_0           

           TOTAL OUT =           0.1142             TOTAL OUT =           0.1142

            IN - OUT =       4.5962E-04              IN - OUT =       4.5962E-04

 PERCENT DISCREPANCY =           0.40     PERCENT DISCREPANCY =           0.40




         TIME SUMMARY AT END OF TIME STEP    1 IN STRESS PERIOD    1
                    SECONDS     MINUTES      HOURS       DAYS        YEARS
                    -----------------------------------------------------------
   TIME STEP LENGTH  1.0000     1.66667E-02 2.77778E-04 1.15741E-05 3.16881E-08
 STRESS PERIOD TIME  1.0000     1.66667E-02 2.77778E-04 1.15741E-05 3.16881E-08
         TOTAL TIME  1.0000     1.66667E-02 2.77778E-04 1.15741E-05 3.16881E-08


         ****FAILED TO MEET SOLVER CONVERGENCE CRITERIA IN TIME STEP 1 OF STRESS PERIOD 1****

end timestep

