                                   MODFLOW 6
                U.S. GEOLOGICAL SURVEY MODULAR HYDROLOGIC MODEL
                          GROUNDWATER FLOW MODEL (GWF)
                   VERSION 6.3.0 release candidate 07/30/2021
                               ***DEVELOP MODE***

   MODFLOW 6 compiled Oct 27 2021 07:53:31 with IFORT compiler (ver. 20.21.1)

This software is preliminary or provisional and is subject to 
revision. It is being provided to meet the need for timely best 
science. The software has not received final approval by the U.S. 
Geological Survey (USGS). No warranty, expressed or implied, is made 
by the USGS or the U.S. Government as to the functionality of the 
software and related material nor shall the fact of release 
constitute any such warranty. The software is provided on the 
condition that neither the USGS nor the U.S. Government shall be held 
liable for any damages resulting from the authorized or unauthorized 
use of the software.


System command used to initiate simulation:
E:\15_REPOS\00_BETAMI\bin\mf6.exe

MODFLOW was compiled using uniform precision.

Real Variables
  KIND: 8
  TINY (smallest non-zero value):    2.225074-308
  HUGE (largest value):    1.797693+308
  PRECISION: 15
  BIT SIZE: 64

Integer Variables
  KIND: 4
  HUGE (largest value): 2147483647
  BIT SIZE: 32

Long Integer Variables
  KIND: 8
  HUGE (largest value): 9223372036854775807
  BIT SIZE: 64

Logical Variables
  KIND: 4
  BIT SIZE: 32
 

 OPENED Freyberg.dis
 FILE TYPE:DIS6                   UNIT 1005   STATUS:OLD                 
 FORMAT:FORMATTED              ACCESS:SEQUENTIAL          
 ACTION:READ                


 OPENED Freyberg.npf
 FILE TYPE:NPF6                   UNIT 1006   STATUS:OLD                 
 FORMAT:FORMATTED              ACCESS:SEQUENTIAL          
 ACTION:READ                


 OPENED Freyberg.ic
 FILE TYPE:IC6                    UNIT 1007   STATUS:OLD                 
 FORMAT:FORMATTED              ACCESS:SEQUENTIAL          
 ACTION:READ                


 OPENED Freyberg.riv
 FILE TYPE:RIV6                   UNIT 1008   STATUS:OLD                 
 FORMAT:FORMATTED              ACCESS:SEQUENTIAL          
 ACTION:READ                


 OPENED Freyberg.wel
 FILE TYPE:WEL6                   UNIT 1009   STATUS:OLD                 
 FORMAT:FORMATTED              ACCESS:SEQUENTIAL          
 ACTION:READ                


 OPENED Freyberg.rcha
 FILE TYPE:RCH6                   UNIT 1010   STATUS:OLD                 
 FORMAT:FORMATTED              ACCESS:SEQUENTIAL          
 ACTION:READ                


 OPENED Freyberg.chd
 FILE TYPE:CHD6                   UNIT 1011   STATUS:OLD                 
 FORMAT:FORMATTED              ACCESS:SEQUENTIAL          
 ACTION:READ                


 OPENED Freyberg.cf.wel
 FILE TYPE:WEL6                   UNIT 1012   STATUS:OLD                 
 FORMAT:FORMATTED              ACCESS:SEQUENTIAL          
 ACTION:READ                


 OPENED Freyberg.oc
 FILE TYPE:OC6                    UNIT 1013   STATUS:OLD                 
 FORMAT:FORMATTED              ACCESS:SEQUENTIAL          
 ACTION:READ                


 OPENED freyberg_0.wel
 FILE TYPE:WEL6                   UNIT 1014   STATUS:OLD                 
 FORMAT:FORMATTED              ACCESS:SEQUENTIAL          
 ACTION:READ                

 NAMEFILE OPTIONS:
    NEWTON-RAPHSON method enabled for the model.
    NEWTON-RAPHSON UNDER-RELAXATION based on the bottom elevation of the model will be applied to the model.

 DIS -- STRUCTURED GRID DISCRETIZATION PACKAGE, VERSION 2 : 3/27/2014 - INPUT READ FROM UNIT 1005


 # File generated by Flopy version 3.10.0.dev3 on 07/28/2025 at 06:34:53.
 PROCESSING DISCRETIZATION OPTIONS
    MODEL LENGTH UNIT IS METERS
 END OF DISCRETIZATION OPTIONS
 PROCESSING DISCRETIZATION DIMENSIONS
    NLAY =       1
    NROW =      40
    NCOL =      20
 END OF DISCRETIZATION DIMENSIONS
 PROCESSING GRIDDATA

                     DELR =   250.0000    

                     DELC =   250.0000    

 TOP ELEVATION OF LAYER 1 =   35.00000    
 END PROCESSING GRIDDATA

 THE SPECIFIED IDOMAIN RESULTS IN A REDUCED NUMBER OF CELLS.
 NUMBER OF USER NODES: 800
 NUMBER OF NODES IN SOLUTION: 705



 NPF -- NODE PROPERTY FLOW PACKAGE, VERSION 1, 3/30/2015 INPUT READ FROM UNIT 1006


 # File generated by Flopy version 3.10.0.dev3 on 07/28/2025 at 06:34:53.
 PROCESSING NPF OPTIONS
 END OF NPF OPTIONS

 WEL   -- WEL PACKAGE, VERSION 8, 2/22/2014 INPUT READ FROM UNIT 1009
 # File generated by Flopy version 3.10.0.dev3 on 07/28/2025 at 06:34:53.

 PROCESSING WEL OPTIONS
 END OF WEL OPTIONS

 PROCESSING WEL DIMENSIONS
    MAXBOUND =       6
 END OF WEL DIMENSIONS

 WEL   -- WEL PACKAGE, VERSION 8, 2/22/2014 INPUT READ FROM UNIT 1012
 # File generated by Flopy version 3.10.0.dev3 on 07/28/2025 at 06:34:53.

 PROCESSING WEL OPTIONS
 END OF WEL OPTIONS

 PROCESSING WEL DIMENSIONS
    MAXBOUND =       1
 END OF WEL DIMENSIONS

 WEL   -- WEL PACKAGE, VERSION 8, 2/22/2014 INPUT READ FROM UNIT 1014
 # File generated by Flopy version 3.10.0.dev3 on 07/28/2025 at 06:34:53.

 PROCESSING WEL OPTIONS
 END OF WEL OPTIONS

 PROCESSING WEL DIMENSIONS
    MAXBOUND =       7
 END OF WEL DIMENSIONS

 RIV   -- RIV PACKAGE, VERSION 8, 2/22/2014 INPUT READ FROM UNIT 1008
 # File generated by Flopy version 3.10.0.dev3 on 07/28/2025 at 06:34:53.

 PROCESSING RIV OPTIONS
 END OF RIV OPTIONS

 PROCESSING RIV DIMENSIONS
    MAXBOUND =      40
 END OF RIV DIMENSIONS

 RCH   -- RCH PACKAGE, VERSION 8, 2/22/2014 INPUT READ FROM UNIT 1010
 # File generated by Flopy version 3.10.0.dev3 on 07/28/2025 at 06:34:53.

 PROCESSING RCH OPTIONS
    RECHARGE INPUT WILL BE READ AS ARRAY(S).
 END OF RCHA OPTIONS

 CHD   -- CHD PACKAGE, VERSION 8, 2/22/2014 INPUT READ FROM UNIT 1011
 # File generated by Flopy version 3.10.0.dev3 on 07/28/2025 at 06:34:53.

 PROCESSING CHD OPTIONS
 END OF CHD OPTIONS

 PROCESSING CHD DIMENSIONS
    MAXBOUND =      10
 END OF CHD DIMENSIONS

 IC -- INITIAL CONDITIONS PACKAGE, VERSION 8, 3/28/2015 INPUT READ FROM UNIT 1007
 # File generated by Flopy version 3.10.0.dev3 on 07/28/2025 at 06:34:53.
 PROCESSING IC OPTIONS
 END OF IC OPTIONS
 PROCESSING GRIDDATA

     INITIAL HEAD =   45.00000    
 END PROCESSING GRIDDATA
 PROCESSING GRIDDATA

                ICELLTYPE = 1
 K33 not provided.  Assuming K33 = K.
 K22 not provided.  Assuming K22 = K.
 END PROCESSING GRIDDATA
    BINARY GRID INFORMATION WILL BE WRITTEN TO:
      UNIT NUMBER: 1016
      FILE NAME: e:\15_REPOS\01_Beta-Me\data\Freyberg\Freyberg.dis.grb

 OPENED e:\15_REPOS\01_Beta-Me\data\Freyberg\Freyberg.dis.grb
 FILE TYPE:DATA(BINARY)   UNIT 1016   STATUS:REPLACE             
 FORMAT:UNFORMATTED            ACCESS:STREAM              
 ACTION:READWRITE           

      THE LAST TIME STEP WILL BE PRINTED
      THE LAST TIME STEP WILL BE PRINTED
 # File generated by Flopy version 3.10.0.dev3 on 07/28/2025 at 06:34:53.

 PROCESSING OC OPTIONS

    BUDGET INFORMATION WILL BE WRITTEN TO:
      UNIT NUMBER: 1017
      FILE NAME: Freyberg.bud

 OPENED Freyberg.bud
 FILE TYPE:DATA(BINARY)   UNIT 1017   STATUS:REPLACE             
 FORMAT:UNFORMATTED            ACCESS:STREAM              
 ACTION:READWRITE           

    HEAD INFORMATION WILL BE WRITTEN TO:
      UNIT NUMBER: 1018
      FILE NAME: Freyberg.hds

 OPENED Freyberg.hds
 FILE TYPE:DATA(BINARY)   UNIT 1018   STATUS:REPLACE             
 FORMAT:UNFORMATTED            ACCESS:STREAM              
 ACTION:READWRITE           

 END OF OC OPTIONS

start timestep kper="1" kstp="1" mode="normal"


 BEGIN READING OUTPUT CONTROL FOR STRESS PERIOD 1
      ALL TIME STEPS WILL BE SAVED
      ALL TIME STEPS WILL BE SAVED
      ALL TIME STEPS WILL BE PRINTED
      ALL TIME STEPS WILL BE PRINTED

 END READING OUTPUT CONTROL FOR STRESS PERIOD 1

 REUSING WELS FROM LAST STRESS PERIOD

                 RECHARGE =  0.1600000E-08
1
  HEAD IN LAYER   1 AT END OF TIME STEP   1 IN STRESS PERIOD    1
  ---------------------------------------------------------------------------

                1               2               3               4               5               6               7               8               9              10
               11              12              13              14              15              16              17              18              19              20
 ................................................................................................................................................................
   1      24.3733         18.8260         18.7417         16.1528         16.5238         14.7324         15.9469         16.0539         16.6317         17.2709    
          17.9212         18.5180         19.1016         19.6071         20.0796         20.0563         20.0858         20.1107         20.1318         20.1503    
   2      19.3409         21.6972         18.3724         17.9385         17.3379         14.7108         15.3031         15.5655         16.4133         17.1840    
          17.8749         18.4719         19.0288         19.4826         19.8654         19.9351         20.0079         20.0534         20.0812         20.1013    
   3      22.0960         19.0726         18.4485         21.3808         15.7744         14.5837         12.2150         14.4018         15.8804         17.0305    
          17.8080         18.4181         18.9323         19.3181         19.6432         19.7802         19.8717         19.9340         19.9767         20.0011    
   4      19.2747         19.0761         19.3426         15.1428         13.4964         15.7730         11.6706         11.9571         15.6950         16.9935    
          17.7792         18.3456         18.7861         19.1386         19.4153         19.5569         19.6904         19.7711         19.8233         19.8515    
   5      19.0732         18.2489         17.1737         15.1334         15.2302         13.7589         8.87976         14.6413         16.1630         17.1440    
          17.8138         18.2991         18.6837         18.9757         19.1905         19.3203         19.4324         19.5535         19.6236         19.6643    
   6      16.6008         18.3512         16.8395         14.1513         13.8668         14.8223         15.3046         13.1005         16.3572         17.3840    
          17.9044         18.2858         18.5847         18.8107         18.9657         19.0409         19.1639         19.2890         19.4019         19.4496    
   7      16.3577         13.9773         15.6061         11.9563         14.7717         12.1214         15.2875         14.7985         16.9659         17.6249    
          17.9822         18.2564         18.4628         18.6269         18.7358         18.6657         18.8283         19.0092         19.1405         19.2098    
   8      19.7113         15.1543         14.7338         13.7907         15.6898         15.0467         14.7755         16.1122         17.6114         17.8597    
          18.0477         18.1819         18.2968         18.4105         18.4957         18.0116         18.3411         18.6760         18.8732         18.9757    
   9      18.6332         14.5849         15.4807         16.1957        1.000000E+30    1.000000E+30    1.000000E+30     17.4922         17.8334         17.9559    
          18.0151         18.0267         18.0428         18.1539         18.2371         16.3971         17.7971         18.3604         18.6428         18.7586    
  10      19.6650         14.6157         15.9909         15.1584        1.000000E+30    1.000000E+30    1.000000E+30    1.000000E+30     17.9954         17.9932    
          17.9275         17.7864         17.6009         17.8363         18.0408         17.5680         17.9339         18.2728         18.5047         18.6088    
  11      17.5742         15.2964         16.0544         15.9263        1.000000E+30    1.000000E+30    1.000000E+30    1.000000E+30     18.0638         17.9989    
          17.8437         17.4733         16.5018         17.4696         17.8232         17.8184         18.0113         18.2344         18.4035         18.4917    
  12      13.3943         13.9951         15.1558         15.1250        1.000000E+30    1.000000E+30    1.000000E+30    1.000000E+30     18.0817         18.0000    
          17.8482         17.6145         17.3154         17.4857         17.6066         17.7906         17.9930         18.1674         18.3086         18.3766    
  13      14.3431         14.2585         14.6978         17.8008        1.000000E+30    1.000000E+30    1.000000E+30    1.000000E+30     18.0684         17.9917    
          17.8466         17.6684         17.5052         17.4444         17.3875         17.6453         17.8908         18.0688         18.1983         18.2642    
  14      15.3781         14.9248         20.0580         19.0704        1.000000E+30    1.000000E+30    1.000000E+30    1.000000E+30     18.0304         17.9486    
          17.8166         17.6573         17.4884         17.3382         17.1669         17.4883         17.7686         17.9554         18.0718         18.1268    
  15      20.7591         18.0198         19.1538         19.2874        1.000000E+30    1.000000E+30    1.000000E+30    1.000000E+30     17.9486         17.8670    
          17.7290         17.5599         17.3828         17.1900         16.9397         17.3098         17.6294         17.8262         17.9439         17.9961    
  16      16.7893         18.0061         19.0323         19.3874        1.000000E+30    1.000000E+30    1.000000E+30    1.000000E+30     17.8099         17.7159    
          17.5793         17.3927         17.2014         16.9821         16.7131         17.1171         17.4613         17.6766         17.8034         17.8595    
  17      19.0483         18.9674         19.2901         19.4418        1.000000E+30    1.000000E+30    1.000000E+30    1.000000E+30     17.5971         17.5166    
          17.3549         17.1708         16.9594         16.7301         16.4851         16.9097         17.2709         17.5176         17.6511         17.7078    
  18      17.9918         19.1932         19.5053         19.5416        1.000000E+30    1.000000E+30    1.000000E+30    1.000000E+30     17.3471         17.2406    
          17.0846         16.9025         16.6380         16.3980         16.2573         16.7025         17.0671         17.3355         17.4858         17.5561    
  19      14.6275         20.1602         19.8286         19.5895        1.000000E+30    1.000000E+30    1.000000E+30    1.000000E+30     16.9361         16.8748    
          16.7513         16.5315         16.1913         15.8528         16.0245         16.5004         16.8873         17.1699         17.3283         17.4054    
  20      14.5912         19.0041         19.9958         18.4514        1.000000E+30    1.000000E+30    1.000000E+30    1.000000E+30     16.4761         16.4309    
          16.3503         16.1115         15.6466         14.6674         15.7812         16.3032         16.7050         17.0021         17.1796         17.2496    
  21      15.2350         18.1420         17.8130         17.4062        1.000000E+30    1.000000E+30    1.000000E+30    1.000000E+30     15.8549         15.9356    
          15.9421         15.8387         15.5847         15.2928         15.5684         16.1100         16.5297         16.8296         17.0187         17.0995    
  22      14.9258         16.2969         16.3882         16.3178        1.000000E+30    1.000000E+30     14.1402         14.7280         15.0797         15.3709    
          15.4937         15.5262         15.4461         15.3325         15.3473         15.9151         16.3713         16.6690         16.8521         16.9473    
  23      14.3663         14.9458         15.0215         15.0695         14.2749        1.000000E+30     13.5095         14.0601         14.3859         14.7236    
          14.9704         15.1262         15.1989         15.1711         15.1227         15.7105         16.1945         16.5334         16.7148         16.8078    
  24      14.0502         12.9730         12.9767         14.0511         13.0902         11.4699         12.0713         12.5766         13.5088         13.9548    
          14.3801         14.6895         14.8843         14.9355         14.8944         15.5471         16.0451         16.3755         16.5815         16.6767    
  25      14.4143         12.3592         10.4803         12.8710         11.2816         7.41206         9.53002         11.2646         12.5490         13.1569    
          13.7867         14.2590         14.5540         14.6750         14.6673         15.3409         15.9091         16.2391         16.4529         16.5491    
  26      14.9071         10.5121         10.8967         7.29862         6.58165         4.66105         7.95525         10.1193         11.4508         12.2806    
          13.2888         13.8912         14.2426         14.4231         14.4423         15.1725         15.7670         16.1146         16.3404         16.4416    
  27      13.4348         10.7488         9.44352         10.0596         6.58455         6.21705         6.33510         9.47869         11.0229         11.9980    
          12.9700         13.5972         13.9128         14.1500         14.2130         15.0229         15.6463         16.0187         16.2401         16.3435    
  28      14.0264         12.1742         9.45814         10.3265         7.19629         7.09576         8.00651         9.75971         10.9956         11.8394    
          12.6005         13.1499         13.5174         13.8204         13.9847         14.8595         15.5328         15.9292         16.1465         16.2529    
  29      15.1834         11.6222         10.5322         10.9929         8.04362         8.09123         8.78806         10.1233         11.1588         11.6317    
          12.1989         12.6489         13.0401         13.4487         13.7538         14.6963         15.4422         15.8463         16.0660         16.1653    
  30      14.4386         11.7030         11.2838         10.8302         10.0044         9.45600         9.73009         9.98359         10.7054         11.1988    
          11.5440         11.9428         12.4228         12.9916         13.5247         14.5125         15.3041         15.7398         15.9569         16.0551    
  31      12.6852         11.9175         11.6729         11.1989         10.4679         10.2072         9.23481         8.87621         9.79447         10.1474    
          10.3229         10.6846         11.5794         12.4117         13.2926         14.3335         15.1222         15.5915         15.8011         15.8769    
  32      13.0492         11.5449         11.9776         10.9173         10.3359         9.71730         8.29558         7.85700         9.20601         10.8548    
          8.64193         7.95018         10.4821         11.7777         13.0634         14.0591         14.8133         15.3018         15.5542         15.6321    
  33     1.000000E+30     11.5821         12.4796         10.6994         10.3427         9.25291         6.55509         9.77784         16.9435         4.00830    
          2.10597         1.04265         8.70508         11.5547         12.8325         13.6322         14.4195         14.9631         15.2551         15.3653    
  34     1.000000E+30    1.000000E+30     11.2184         10.6704         10.3032         8.21725         7.39545         6.13558         6.44190         3.85436    
          13.0824        0.660050         11.8154         11.3352         12.6093         13.4517         14.1475         14.6936         14.9912         15.1471    
  35     1.000000E+30    1.000000E+30    1.000000E+30     11.9080         10.8689         14.8228         8.41334         6.20870         6.35224         4.99585    
         0.800840        0.462830         6.43809         10.3356         12.3748         13.2473         13.9092         14.4420         14.7537         15.0064    
  36     1.000000E+30    1.000000E+30    1.000000E+30    1.000000E+30     11.7476         13.3707         12.5708         10.8809         13.6540         12.2406    
          8.46222         2.46837         8.67240         10.4614         12.1500         13.0494         13.7126         14.1839         14.4322        1.000000E+30
  37     1.000000E+30    1.000000E+30    1.000000E+30    1.000000E+30     14.4510         11.9393         12.1452         11.8466         12.6113         11.2965    
          9.26524         8.44561         8.95201         10.1793         11.9258         12.9028         13.5083         13.9565         14.2618        1.000000E+30
  38     1.000000E+30    1.000000E+30    1.000000E+30    1.000000E+30    1.000000E+30     13.6758         13.6231         13.4309         13.1612         12.4975    
          11.0193         9.79063         8.60494         7.41813         11.6920         12.7292         13.2854         13.7125        1.000000E+30    1.000000E+30
  39     1.000000E+30    1.000000E+30    1.000000E+30    1.000000E+30    1.000000E+30     15.3332         15.0870         14.8028         14.3488         13.8520    
          12.5106         10.7649         7.47446        0.166160         11.3844         12.5465         13.0077        1.000000E+30    1.000000E+30    1.000000E+30
  40     1.000000E+30    1.000000E+30    1.000000E+30    1.000000E+30    1.000000E+30     16.9000         16.4000         16.1000         15.6000         15.1000    
          14.0000         13.0000         12.5000         12.0000         11.4000        1.000000E+30    1.000000E+30    1.000000E+30    1.000000E+30    1.000000E+30

 HEAD WILL BE SAVED ON UNIT 1018 AT END OF TIME STEP    1, STRESS PERIOD    1


  VOLUME BUDGET FOR ENTIRE MODEL AT END OF TIME STEP    1, STRESS PERIOD   1
  ---------------------------------------------------------------------------------------------------

     CUMULATIVE VOLUME      L**3       RATES FOR THIS TIME STEP      L**3/T          PACKAGE NAME    
     ------------------                 ------------------------                     ----------------

           IN:                                      IN:
           ---                                      ---
                 WEL =           0.0000                   WEL =           0.0000     WEL-1           
                 WEL =           0.0000                   WEL =           0.0000     CF-1            
                 WEL =           0.0000                   WEL =           0.0000     WEL_0           
                 RIV =       1.3579E-02                   RIV =       1.3579E-02     RIV-1           
                RCHA =       6.9500E-02                  RCHA =       6.9500E-02     RCHA_0          
                 CHD =       8.8963E-03                   CHD =       8.8963E-03     CHD_0           

            TOTAL IN =       9.1975E-02              TOTAL IN =       9.1975E-02

          OUT:                                     OUT:
          ----                                     ----
                 WEL =       2.2050E-02                   WEL =       2.2050E-02     WEL-1           
                 WEL =           0.0000                   WEL =           0.0000     CF-1            
                 WEL =       8.8994E-02                   WEL =       8.8994E-02     WEL_0           
                 RIV =       1.0962E-02                   RIV =       1.0962E-02     RIV-1           
                RCHA =           0.0000                  RCHA =           0.0000     RCHA_0          
                 CHD =           0.0000                   CHD =           0.0000     CHD_0           

           TOTAL OUT =           0.1220             TOTAL OUT =           0.1220

            IN - OUT =      -3.0031E-02              IN - OUT =      -3.0031E-02

 PERCENT DISCREPANCY =         -28.07     PERCENT DISCREPANCY =         -28.07




         TIME SUMMARY AT END OF TIME STEP    1 IN STRESS PERIOD    1
                    SECONDS     MINUTES      HOURS       DAYS        YEARS
                    -----------------------------------------------------------
   TIME STEP LENGTH  1.0000     1.66667E-02 2.77778E-04 1.15741E-05 3.16881E-08
 STRESS PERIOD TIME  1.0000     1.66667E-02 2.77778E-04 1.15741E-05 3.16881E-08
         TOTAL TIME  1.0000     1.66667E-02 2.77778E-04 1.15741E-05 3.16881E-08


         ****FAILED TO MEET SOLVER CONVERGENCE CRITERIA IN TIME STEP 1 OF STRESS PERIOD 1****

end timestep

