                                   MODFLOW 6
                U.S. GEOLOGICAL SURVEY MODULAR HYDROLOGIC MODEL
                          GROUNDWATER FLOW MODEL (GWF)
                   VERSION 6.3.0 release candidate 02/06/2022
                               ***DEVELOP MODE***

   MODFLOW 6 compiled Feb 06 2022 02:35:51 with Intel(R) Fortran Intel(R) 64
   Compiler Classic for applications running on Intel(R) 64, Version 2021.5.0
                             Build 20211109_000000

This software is preliminary or provisional and is subject to 
revision. It is being provided to meet the need for timely best 
science. The software has not received final approval by the U.S. 
Geological Survey (USGS). No warranty, expressed or implied, is made 
by the USGS or the U.S. Government as to the functionality of the 
software and related material nor shall the fact of release 
constitute any such warranty. The software is provided on the 
condition that neither the USGS nor the U.S. Government shall be held 
liable for any damages resulting from the authorized or unauthorized 
use of the software.


As a work of the United States Government, this USGS product is 
in the public domain within the United States. You can copy, 
modify, distribute, and perform the work, even for commercial 
purposes, all without asking permission. Additionally, USGS 
waives copyright and related rights in the work worldwide 
through CC0 1.0 Universal Public Domain Dedication 
(https://creativecommons.org/publicdomain/zero/1.0/).

The following GNU Lesser General Public License (LGPL) libraries
are used in this USGS product:

    SPARSKIT version 2.0
      ilut, luson, and qsplit 
      (https://www-users.cse.umn.edu/~saad/software/SPARSKIT/)

    RCM - Reverse Cuthill McKee Ordering
      (https://people.math.sc.edu/Burkardt/f_src/rcm/rcm.html)

    BLAS - Basic Linear Algebra Subprograms Level 1
      (https://people.math.sc.edu/Burkardt/f_src/blas1_d/blas1_d.html)

    SPARSEKIT - Sparse Matrix Utility Package
      amux, dperm, dvperm, rperm, and cperm
      (https://people.sc.fsu.edu/~jburkardt/f77_src/sparsekit/sparsekit.html)

The following BSD-3 License libraries are used in this USGS product:

    Modern Fortran DAG Library
      Copyright (c) 2018, Jacob Williams
      All rights reserved.
      (https://github.com/jacobwilliams/daglib)

MODFLOW 6 compiler options: /O2 /heap-arrays:0 /fpe:0 /traceback /nologo /fpp
/c /module:.\mod_temp\ /object:.\obj_temp\

System command used to initiate simulation:
E:\15_REPOS\00_BETAMI\bin\mf6.exe

MODFLOW was compiled using uniform precision.

Real Variables
  KIND: 8
  TINY (smallest non-zero value):    2.225074-308
  HUGE (largest value):    1.797693+308
  PRECISION: 15
  BIT SIZE: 64

Integer Variables
  KIND: 4
  HUGE (largest value): 2147483647
  BIT SIZE: 32

Long Integer Variables
  KIND: 8
  HUGE (largest value): 9223372036854775807
  BIT SIZE: 64

Logical Variables
  KIND: 4
  BIT SIZE: 32
 

 OPENED Freyberg.oc
 FILE TYPE:OC6                    UNIT 1005   STATUS:OLD                 
 FORMAT:FORMATTED              ACCESS:SEQUENTIAL          
 ACTION:READ                


 OPENED Freyberg.cf.wel
 FILE TYPE:WEL6                   UNIT 1006   STATUS:OLD                 
 FORMAT:FORMATTED              ACCESS:SEQUENTIAL          
 ACTION:READ                


 OPENED Freyberg.chd
 FILE TYPE:CHD6                   UNIT 1007   STATUS:OLD                 
 FORMAT:FORMATTED              ACCESS:SEQUENTIAL          
 ACTION:READ                


 OPENED Freyberg.rcha
 FILE TYPE:RCH6                   UNIT 1008   STATUS:OLD                 
 FORMAT:FORMATTED              ACCESS:SEQUENTIAL          
 ACTION:READ                


 OPENED Freyberg.wel
 FILE TYPE:WEL6                   UNIT 1009   STATUS:OLD                 
 FORMAT:FORMATTED              ACCESS:SEQUENTIAL          
 ACTION:READ                


 OPENED Freyberg.riv
 FILE TYPE:RIV6                   UNIT 1010   STATUS:OLD                 
 FORMAT:FORMATTED              ACCESS:SEQUENTIAL          
 ACTION:READ                


 OPENED Freyberg.ic
 FILE TYPE:IC6                    UNIT 1011   STATUS:OLD                 
 FORMAT:FORMATTED              ACCESS:SEQUENTIAL          
 ACTION:READ                


 OPENED Freyberg.npf
 FILE TYPE:NPF6                   UNIT 1012   STATUS:OLD                 
 FORMAT:FORMATTED              ACCESS:SEQUENTIAL          
 ACTION:READ                


 OPENED Freyberg.dis
 FILE TYPE:DIS6                   UNIT 1013   STATUS:OLD                 
 FORMAT:FORMATTED              ACCESS:SEQUENTIAL          
 ACTION:READ                


 OPENED freyberg_0.wel
 FILE TYPE:WEL6                   UNIT 1014   STATUS:OLD                 
 FORMAT:FORMATTED              ACCESS:SEQUENTIAL          
 ACTION:READ                

 NAMEFILE OPTIONS:
    NEWTON-RAPHSON method enabled for the model.
    NEWTON-RAPHSON UNDER-RELAXATION based on the bottom elevation of the model will be applied to the model.

 DIS -- STRUCTURED GRID DISCRETIZATION PACKAGE, VERSION 2 : 3/27/2014 - INPUT READ FROM UNIT 1013


 # File generated by Flopy version 3.8.2 on 09/07/2025 at 07:21:27.
 PROCESSING DISCRETIZATION OPTIONS
    MODEL LENGTH UNIT IS METERS
 END OF DISCRETIZATION OPTIONS
 PROCESSING DISCRETIZATION DIMENSIONS
    NLAY =       1
    NROW =      40
    NCOL =      20
 END OF DISCRETIZATION DIMENSIONS
 PROCESSING GRIDDATA

                     DELR =   250.0000    

                     DELC =   250.0000    

 TOP ELEVATION OF LAYER 1 =   35.00000    
 END PROCESSING GRIDDATA

 THE SPECIFIED IDOMAIN RESULTS IN A REDUCED NUMBER OF CELLS.
 NUMBER OF USER NODES: 800
 NUMBER OF NODES IN SOLUTION: 705



 NPF -- NODE PROPERTY FLOW PACKAGE, VERSION 1, 3/30/2015 INPUT READ FROM UNIT 1012


 # File generated by Flopy version 3.8.2 on 09/07/2025 at 07:21:27.
 PROCESSING NPF OPTIONS
 END OF NPF OPTIONS

 WEL   -- WEL PACKAGE, VERSION 8, 2/22/2014 INPUT READ FROM UNIT 1006
 # File generated by Flopy version 3.8.2 on 09/07/2025 at 07:21:27.

 PROCESSING WEL OPTIONS
 END OF WEL OPTIONS

 PROCESSING WEL DIMENSIONS
    MAXBOUND =       1
 END OF WEL DIMENSIONS

 WEL   -- WEL PACKAGE, VERSION 8, 2/22/2014 INPUT READ FROM UNIT 1009
 # File generated by Flopy version 3.8.2 on 09/07/2025 at 07:21:27.

 PROCESSING WEL OPTIONS
 END OF WEL OPTIONS

 PROCESSING WEL DIMENSIONS
    MAXBOUND =       6
 END OF WEL DIMENSIONS

 WEL   -- WEL PACKAGE, VERSION 8, 2/22/2014 INPUT READ FROM UNIT 1014
 # File generated by Flopy version 3.8.2 on 09/07/2025 at 07:21:27.

 PROCESSING WEL OPTIONS
 END OF WEL OPTIONS

 PROCESSING WEL DIMENSIONS
    MAXBOUND =      10
 END OF WEL DIMENSIONS

 RIV   -- RIV PACKAGE, VERSION 8, 2/22/2014 INPUT READ FROM UNIT 1010
 # File generated by Flopy version 3.8.2 on 09/07/2025 at 07:21:27.

 PROCESSING RIV OPTIONS
 END OF RIV OPTIONS

 PROCESSING RIV DIMENSIONS
    MAXBOUND =      40
 END OF RIV DIMENSIONS

 RCH   -- RCH PACKAGE, VERSION 8, 2/22/2014 INPUT READ FROM UNIT 1008
 # File generated by Flopy version 3.8.2 on 09/07/2025 at 07:21:27.

 PROCESSING RCH OPTIONS
    RECHARGE INPUT WILL BE READ AS ARRAY(S).
 END OF RCHA OPTIONS

 CHD   -- CHD PACKAGE, VERSION 8, 2/22/2014 INPUT READ FROM UNIT 1007
 # File generated by Flopy version 3.8.2 on 09/07/2025 at 07:21:27.

 PROCESSING CHD OPTIONS
 END OF CHD OPTIONS

 PROCESSING CHD DIMENSIONS
    MAXBOUND =      10
 END OF CHD DIMENSIONS

 IC -- INITIAL CONDITIONS PACKAGE, VERSION 8, 3/28/2015 INPUT READ FROM UNIT 1011
 # File generated by Flopy version 3.8.2 on 09/07/2025 at 07:21:27.
 PROCESSING IC OPTIONS
 END OF IC OPTIONS
 PROCESSING GRIDDATA

     INITIAL HEAD =   45.00000    
 END PROCESSING GRIDDATA
 PROCESSING GRIDDATA

                ICELLTYPE = 1
 K33 not provided.  Assuming K33 = K.
 K22 not provided.  Assuming K22 = K.
 END PROCESSING GRIDDATA
    BINARY GRID INFORMATION WILL BE WRITTEN TO:
      UNIT NUMBER: 1016
      FILE NAME: e:\15_REPOS\01_Beta-Me\data\Freyberg\Freyberg.dis.grb

 OPENED e:\15_REPOS\01_Beta-Me\data\Freyberg\Freyberg.dis.grb
 FILE TYPE:DATA(BINARY)   UNIT 1016   STATUS:REPLACE             
 FORMAT:UNFORMATTED            ACCESS:STREAM              
 ACTION:READWRITE           

      THE LAST TIME STEP WILL BE PRINTED
      THE LAST TIME STEP WILL BE PRINTED
 # File generated by Flopy version 3.8.2 on 09/07/2025 at 07:21:27.

 PROCESSING OC OPTIONS

    BUDGET INFORMATION WILL BE WRITTEN TO:
      UNIT NUMBER: 1017
      FILE NAME: Freyberg.bud

 OPENED Freyberg.bud
 FILE TYPE:DATA(BINARY)   UNIT 1017   STATUS:REPLACE             
 FORMAT:UNFORMATTED            ACCESS:STREAM              
 ACTION:READWRITE           

    HEAD INFORMATION WILL BE WRITTEN TO:
      UNIT NUMBER: 1018
      FILE NAME: Freyberg.hds

 OPENED Freyberg.hds
 FILE TYPE:DATA(BINARY)   UNIT 1018   STATUS:REPLACE             
 FORMAT:UNFORMATTED            ACCESS:STREAM              
 ACTION:READWRITE           

 END OF OC OPTIONS

start timestep kper="1" kstp="1" mode="normal"


 BEGIN READING OUTPUT CONTROL FOR STRESS PERIOD 1
      ALL TIME STEPS WILL BE SAVED
      ALL TIME STEPS WILL BE SAVED
      ALL TIME STEPS WILL BE PRINTED
      ALL TIME STEPS WILL BE PRINTED

 END READING OUTPUT CONTROL FOR STRESS PERIOD 1

 REUSING WELS FROM LAST STRESS PERIOD

                 RECHARGE =  0.1600000E-08
1
  HEAD IN LAYER   1 AT END OF TIME STEP   1 IN STRESS PERIOD    1
  ---------------------------------------------------------------------------

                1               2               3               4               5               6               7               8               9              10
               11              12              13              14              15              16              17              18              19              20
 ................................................................................................................................................................
   1      20.5193         19.1956         18.7735         15.9304         13.9824         14.4930         8.06694         10.6445         8.96459         9.98134    
          21.3650         18.7835         18.7414         19.3583         20.0720         20.0479         20.0767         20.1011         20.1218         20.1402    
   2      19.5953         20.9423         18.2342         13.6605         13.2620         13.9481         10.7005         9.96988         11.0847         18.5181    
          19.9439         18.5691         18.6735         19.2482         19.8580         19.9271         19.9991         20.0439         20.0713         20.0912    
   3      19.4489         18.9317         18.2961         13.0053         13.7484         14.4261         9.25051         11.2515         8.43334         12.5504    
          19.5804         18.3815         18.6282         19.1138         19.6373         19.7728         19.8632         19.9246         19.9669         19.9911    
   4      20.9048         18.8970         19.3808         16.8295         13.3438         15.8306         11.4977         8.83103         12.7305         22.4613    
          19.1637         18.4971         18.6320         18.9932         19.4105         19.5503         19.6823         19.7620         19.8137         19.8416    
   5      18.9459         18.0611         16.9954         14.8820         15.3768         13.9174         8.75393         14.6749         14.5540         20.4298    
          18.7945         18.4365         18.5684         18.8630         19.1864         19.3141         19.4246         19.5446         19.6140         19.6544    
   6      16.1703         18.1780         16.6352         13.7400         13.6572         15.2534         15.3144         18.5483         14.8155         18.5927    
          18.3093         18.2748         18.4475         18.7007         18.9621         19.0350         19.1563         19.2802         19.3924         19.4397    
   7      15.9281         13.2452         15.2066         11.2641         14.6517         30.9716         15.6726         24.2033         15.7526         18.2759    
          18.0595         18.1089         18.2811         18.5047         18.7327         18.6598         18.8206         19.0003         19.1307         19.1996    
   8      19.6769         14.5445         14.4861         13.6733         15.5914         15.3384         20.7449         15.9660         17.2206         17.7145    
          17.7947         17.8923         18.0522         18.2654         18.4916         18.0051         18.3329         18.6666         18.8629         18.9651    
   9      18.7453         20.5404         40.8046         15.8690        1.000000E+30    1.000000E+30    1.000000E+30     17.7837         17.4354         17.4755    
          17.5247         17.5991         17.7202         17.9790         18.2325         16.3893         17.7880         18.3503         18.6319         18.7473    
  10      19.7985         37.4050         15.6876         25.1146        1.000000E+30    1.000000E+30    1.000000E+30    1.000000E+30     17.1927         17.2011    
          17.2177         17.2046         17.1827         17.6193         18.0351         17.5598         17.9240         18.2618         18.4930         18.5967    
  11      20.0034         17.3727         40.4732         15.7735        1.000000E+30    1.000000E+30    1.000000E+30    1.000000E+30     16.8951         16.8896    
          16.8680         16.6890         15.9335         17.2014         17.8161         17.8090         18.0002         18.2222         18.3905         18.4785    
  12      22.5162         19.6486         15.0387         15.6492        1.000000E+30    1.000000E+30    1.000000E+30    1.000000E+30     16.4995         16.5337    
          16.5664         16.5751         16.6066         17.1436         17.5979         17.7793         17.9802         18.1535         18.2942         18.3619    
  13      19.9514         25.0772         19.7762         21.0720        1.000000E+30    1.000000E+30    1.000000E+30    1.000000E+30     16.0047         16.0903    
          16.2150         16.3792         16.6156         16.9971         17.3747         17.6313         17.8758         18.0530         18.1821         18.2478    
  14      17.9341         19.9601         19.9464         20.9220        1.000000E+30    1.000000E+30    1.000000E+30    1.000000E+30     15.3072         15.4730    
          15.7147         16.0068         16.3571         16.7786         17.1509         17.4716         17.7512         17.9374         18.0535         18.1083    
  15      22.3320         18.2526         22.6533         21.4235        1.000000E+30    1.000000E+30    1.000000E+30    1.000000E+30     13.9330         14.5532    
          15.0314         15.4346         15.8490         16.3965         16.9225         17.2901         17.6091         17.8056         17.9234         17.9756    
  16      17.4990         15.8249         19.3924         20.3564        1.000000E+30    1.000000E+30    1.000000E+30    1.000000E+30     10.8115         13.1738    
          14.1339         14.6438         15.1146         15.8585         16.6894         17.0921         17.4369         17.6532         17.7808         17.8371    
  17      15.1644         45.0906         22.5092         19.0609        1.000000E+30    1.000000E+30    1.000000E+30    1.000000E+30     12.3704         13.0511    
          13.4154         13.6258         13.9060         15.0853         16.4505         16.8771         17.2418         17.4913         17.6264         17.6838    
  18      13.9611         10.9055         56.8848         16.9002        1.000000E+30    1.000000E+30    1.000000E+30    1.000000E+30     12.9823         12.9269    
          12.6829         12.2092         11.4914         13.9029         16.2052         16.6610         17.0334         17.3069         17.4597         17.5311    
  19      13.9856         11.3324         22.0608         11.2349        1.000000E+30    1.000000E+30    1.000000E+30    1.000000E+30     13.1155         12.8000    
          12.0949         10.1924         4.16829         12.2019         15.9505         16.4533         16.8519         17.1408         17.3019         17.3804    
  20      14.4026         10.4048         3.99430         10.6804        1.000000E+30    1.000000E+30    1.000000E+30    1.000000E+30     13.2208         12.9364    
          12.4193         11.5459         10.3589         12.1771         15.7345         16.2647         16.6732         16.9747         17.1546         17.2256    
  21      12.8323         11.2330         8.50289         9.81116        1.000000E+30    1.000000E+30    1.000000E+30    1.000000E+30     13.3127         13.1616    
          12.9744         12.7488         12.8135         13.9238         15.5407         16.0819         16.5036         16.8057         16.9961         17.0775    
  22      14.8128         10.8837         54.2479         8.84240        1.000000E+30    1.000000E+30     12.7709         12.9488         13.3325         13.3339    
          13.3755         13.5022         13.8904         14.5258         15.3315         15.8956         16.3509         16.6489         16.8326         16.9279    
  23      12.5640         10.1805         33.0945         9.11955         17.5283        1.000000E+30     12.4755         12.3042         13.2241         13.3769    
          13.5808         13.8700         14.2662         14.7055         15.1135         15.6971         16.1791         16.5170         16.6983         16.7911    
  24      13.9670         10.2202         11.5680         10.0613         11.4172         11.5514         11.0240         13.5597         12.9952         13.2970    
          13.6312         13.9801         14.3524         14.6630         14.8890         15.5377         16.0335         16.3626         16.5680         16.6628    
  25      14.4553         10.2832         50.5936         12.8957         11.2188         11.8666         10.4639         15.8172         12.9400         13.3625    
          13.6542         13.9849         14.3062         14.5411         14.6646         15.3347         15.9004         16.2291         16.4421         16.5380    
  26      15.0479         12.5144         10.8891         9.77292         8.63109         33.1262         6.95252         26.0139         16.7593         13.7950    
          13.7707         13.9917         14.2205         14.3863         14.4415         15.1686         15.7607         16.1071         16.3321         16.4330    
  27      14.0343         12.3811         23.8836         10.2622         6.56048         5.98881         8.60793         10.2522         20.0241         14.7928    
          14.0582         13.9979         14.0883         14.2023         14.2137         15.0207         15.6421         16.0134         16.2343         16.3374    
  28      14.2765         12.5332         23.6457         10.4508         7.19861         6.80413         5.40662         14.5784         23.3645         15.7440    
          14.2020         13.8899         13.8751         13.9636         13.9866         14.8590         15.5306         15.9260         16.1428         16.2490    
  29      15.1888         12.1669         10.9417         10.8353         6.64450         6.45403         5.42576         24.4854         17.5265         14.6274    
          13.8563         13.5954         13.5253         13.6726         13.7566         14.6974         15.4419         15.8452         16.0646         16.1636    
  30      14.2693         11.2227         9.13792         5.34540         6.28301         5.22400         10.0117         8.66650         15.7212         13.7814    
          13.3596         13.1902         12.9301         13.3297         13.5290         14.5155         15.3059         15.7409         15.9579         16.0561    
  31      12.3118         11.7322         26.6508         11.0208         4.57680         7.20399         8.25262         13.4999         13.9301         13.2493    
          12.9678         12.8844         12.9093         13.1114         13.2997         14.3392         15.1269         15.5958         15.8054         15.8812    
  32      12.8504         11.5823         10.8972         15.8264         5.66223         8.52006         10.5320         23.4216         14.7976         13.1481    
          12.5650         12.3572         12.6430         12.8519         13.0707         14.0679         14.8216         15.3100         15.5619         15.6397    
  33     1.000000E+30     22.8854         11.1438         10.3871         8.00391         8.62510         11.4448         23.6254         15.2669         12.7904    
          11.8052         10.7151         11.9480         12.5930         12.8461         13.6448         14.4315         14.9747         15.2660         15.3760    
  34     1.000000E+30    1.000000E+30     11.2070         9.99219         10.2966         9.75858         34.5137         18.8539         15.3511         13.0715    
          10.8904         6.26309         10.8355         12.2879         12.6202         13.4661         14.1625         14.7079         15.0049         15.1601    
  35     1.000000E+30    1.000000E+30    1.000000E+30     8.67632         18.1729         18.0512         17.8740         15.3621         14.0205         13.0606    
          12.0005         10.7528         11.8000         12.2543         12.3961         13.2664         13.9276         14.4594         14.7699         15.0208    
  36     1.000000E+30    1.000000E+30    1.000000E+30    1.000000E+30     31.8790         21.8097         15.1051         14.0616         13.8482         13.4412    
          12.8914         12.4858         12.3671         12.3264         12.1726         13.0722         13.7351         14.2048         14.4518        1.000000E+30
  37     1.000000E+30    1.000000E+30    1.000000E+30    1.000000E+30     18.1088         15.5234         14.4050         14.3298         14.2380         13.9539    
          13.4982         13.1416         12.7726         12.3731         11.9490         12.9305         13.5354         13.9809         14.2835        1.000000E+30
  38     1.000000E+30    1.000000E+30    1.000000E+30    1.000000E+30    1.000000E+30     15.2594         15.0446         14.9195         14.7489         14.4537    
          13.9036         13.4493         13.0143         12.4155         11.7199         12.7662         13.3197         13.7413        1.000000E+30    1.000000E+30
  39     1.000000E+30    1.000000E+30    1.000000E+30    1.000000E+30    1.000000E+30     15.9643         15.7241         15.5005         15.1949         14.8222    
          14.0981         13.4729         12.9609         12.3198         11.4941         12.6051         13.0531        1.000000E+30    1.000000E+30    1.000000E+30
  40     1.000000E+30    1.000000E+30    1.000000E+30    1.000000E+30    1.000000E+30     16.9000         16.4000         16.1000         15.6000         15.1000    
          14.0000         13.0000         12.5000         12.0000         11.4000        1.000000E+30    1.000000E+30    1.000000E+30    1.000000E+30    1.000000E+30

 HEAD WILL BE SAVED ON UNIT 1018 AT END OF TIME STEP    1, STRESS PERIOD    1


  VOLUME BUDGET FOR ENTIRE MODEL AT END OF TIME STEP    1, STRESS PERIOD   1
  ---------------------------------------------------------------------------------------------------

     CUMULATIVE VOLUME      L**3       RATES FOR THIS TIME STEP      L**3/T          PACKAGE NAME    
     ------------------                 ------------------------                     ----------------

           IN:                                      IN:
           ---                                      ---
                 WEL =           0.0000                   WEL =           0.0000     CF-1                             
                 WEL =           0.0000                   WEL =           0.0000     WEL-1                            
                 WEL =           0.0000                   WEL =           0.0000     WEL_0                            
                 RIV =       1.9954E-02                   RIV =       1.9954E-02     RIV-1                            
                RCHA =       6.9500E-02                  RCHA =       6.9500E-02     RCHA_0                           
                 CHD =       2.0193E-03                   CHD =       2.0193E-03     CHD_0                            

            TOTAL IN =       9.1473E-02              TOTAL IN =       9.1473E-02

          OUT:                                     OUT:
          ----                                     ----
                 WEL =           0.0000                   WEL =           0.0000     CF-1                             
                 WEL =       2.2050E-02                   WEL =       2.2050E-02     WEL-1                            
                 WEL =           0.1055                   WEL =           0.1055     WEL_0                            
                 RIV =       9.7208E-03                   RIV =       9.7208E-03     RIV-1                            
                RCHA =           0.0000                  RCHA =           0.0000     RCHA_0                           
                 CHD =       3.8819E-04                   CHD =       3.8819E-04     CHD_0                            

           TOTAL OUT =           0.1377             TOTAL OUT =           0.1377

            IN - OUT =      -4.6179E-02              IN - OUT =      -4.6179E-02

 PERCENT DISCREPANCY =         -40.31     PERCENT DISCREPANCY =         -40.31




         TIME SUMMARY AT END OF TIME STEP    1 IN STRESS PERIOD    1
                    SECONDS     MINUTES      HOURS       DAYS        YEARS
                    -----------------------------------------------------------
   TIME STEP LENGTH  1.0000     1.66667E-02 2.77778E-04 1.15741E-05 3.16881E-08
 STRESS PERIOD TIME  1.0000     1.66667E-02 2.77778E-04 1.15741E-05 3.16881E-08
         TOTAL TIME  1.0000     1.66667E-02 2.77778E-04 1.15741E-05 3.16881E-08


         ****FAILED TO MEET SOLVER CONVERGENCE CRITERIA IN TIME STEP 1 OF STRESS PERIOD 1****

end timestep

