                                   MODFLOW 6
                U.S. GEOLOGICAL SURVEY MODULAR HYDROLOGIC MODEL
                          GROUNDWATER FLOW MODEL (GWF)
                   VERSION 6.3.0 release candidate 07/30/2021
                               ***DEVELOP MODE***

   MODFLOW 6 compiled Oct 27 2021 07:53:31 with IFORT compiler (ver. 20.21.1)

This software is preliminary or provisional and is subject to 
revision. It is being provided to meet the need for timely best 
science. The software has not received final approval by the U.S. 
Geological Survey (USGS). No warranty, expressed or implied, is made 
by the USGS or the U.S. Government as to the functionality of the 
software and related material nor shall the fact of release 
constitute any such warranty. The software is provided on the 
condition that neither the USGS nor the U.S. Government shall be held 
liable for any damages resulting from the authorized or unauthorized 
use of the software.


System command used to initiate simulation:
E:\15_REPOS\00_BETAMI\bin\mf6.exe

MODFLOW was compiled using uniform precision.

Real Variables
  KIND: 8
  TINY (smallest non-zero value):    2.225074-308
  HUGE (largest value):    1.797693+308
  PRECISION: 15
  BIT SIZE: 64

Integer Variables
  KIND: 4
  HUGE (largest value): 2147483647
  BIT SIZE: 32

Long Integer Variables
  KIND: 8
  HUGE (largest value): 9223372036854775807
  BIT SIZE: 64

Logical Variables
  KIND: 4
  BIT SIZE: 32
 

 OPENED Freyberg.dis
 FILE TYPE:DIS6                   UNIT 1005   STATUS:OLD                 
 FORMAT:FORMATTED              ACCESS:SEQUENTIAL          
 ACTION:READ                


 OPENED Freyberg.npf
 FILE TYPE:NPF6                   UNIT 1006   STATUS:OLD                 
 FORMAT:FORMATTED              ACCESS:SEQUENTIAL          
 ACTION:READ                


 OPENED Freyberg.ic
 FILE TYPE:IC6                    UNIT 1007   STATUS:OLD                 
 FORMAT:FORMATTED              ACCESS:SEQUENTIAL          
 ACTION:READ                


 OPENED Freyberg.riv
 FILE TYPE:RIV6                   UNIT 1008   STATUS:OLD                 
 FORMAT:FORMATTED              ACCESS:SEQUENTIAL          
 ACTION:READ                


 OPENED Freyberg.wel
 FILE TYPE:WEL6                   UNIT 1009   STATUS:OLD                 
 FORMAT:FORMATTED              ACCESS:SEQUENTIAL          
 ACTION:READ                


 OPENED Freyberg.rcha
 FILE TYPE:RCH6                   UNIT 1010   STATUS:OLD                 
 FORMAT:FORMATTED              ACCESS:SEQUENTIAL          
 ACTION:READ                


 OPENED Freyberg.chd
 FILE TYPE:CHD6                   UNIT 1011   STATUS:OLD                 
 FORMAT:FORMATTED              ACCESS:SEQUENTIAL          
 ACTION:READ                


 OPENED Freyberg.cf.wel
 FILE TYPE:WEL6                   UNIT 1012   STATUS:OLD                 
 FORMAT:FORMATTED              ACCESS:SEQUENTIAL          
 ACTION:READ                


 OPENED Freyberg.oc
 FILE TYPE:OC6                    UNIT 1013   STATUS:OLD                 
 FORMAT:FORMATTED              ACCESS:SEQUENTIAL          
 ACTION:READ                


 OPENED freyberg_0.wel
 FILE TYPE:WEL6                   UNIT 1014   STATUS:OLD                 
 FORMAT:FORMATTED              ACCESS:SEQUENTIAL          
 ACTION:READ                

 NAMEFILE OPTIONS:
    NEWTON-RAPHSON method enabled for the model.
    NEWTON-RAPHSON UNDER-RELAXATION based on the bottom elevation of the model will be applied to the model.

 DIS -- STRUCTURED GRID DISCRETIZATION PACKAGE, VERSION 2 : 3/27/2014 - INPUT READ FROM UNIT 1005


 # File generated by Flopy version 3.10.0.dev3 on 07/25/2025 at 11:52:39.
 PROCESSING DISCRETIZATION OPTIONS
    MODEL LENGTH UNIT IS METERS
 END OF DISCRETIZATION OPTIONS
 PROCESSING DISCRETIZATION DIMENSIONS
    NLAY =       1
    NROW =      40
    NCOL =      20
 END OF DISCRETIZATION DIMENSIONS
 PROCESSING GRIDDATA

                     DELR =   250.0000    

                     DELC =   250.0000    

 TOP ELEVATION OF LAYER 1 =   35.00000    
 END PROCESSING GRIDDATA

 THE SPECIFIED IDOMAIN RESULTS IN A REDUCED NUMBER OF CELLS.
 NUMBER OF USER NODES: 800
 NUMBER OF NODES IN SOLUTION: 705



 NPF -- NODE PROPERTY FLOW PACKAGE, VERSION 1, 3/30/2015 INPUT READ FROM UNIT 1006


 # File generated by Flopy version 3.10.0.dev3 on 07/25/2025 at 11:52:39.
 PROCESSING NPF OPTIONS
 END OF NPF OPTIONS

 WEL   -- WEL PACKAGE, VERSION 8, 2/22/2014 INPUT READ FROM UNIT 1009
 # File generated by Flopy version 3.10.0.dev3 on 07/25/2025 at 11:52:39.

 PROCESSING WEL OPTIONS
 END OF WEL OPTIONS

 PROCESSING WEL DIMENSIONS
    MAXBOUND =       6
 END OF WEL DIMENSIONS

 WEL   -- WEL PACKAGE, VERSION 8, 2/22/2014 INPUT READ FROM UNIT 1012
 # File generated by Flopy version 3.10.0.dev3 on 07/25/2025 at 11:52:39.

 PROCESSING WEL OPTIONS
 END OF WEL OPTIONS

 PROCESSING WEL DIMENSIONS
    MAXBOUND =       1
 END OF WEL DIMENSIONS

 WEL   -- WEL PACKAGE, VERSION 8, 2/22/2014 INPUT READ FROM UNIT 1014
 # File generated by Flopy version 3.10.0.dev3 on 07/25/2025 at 11:52:39.

 PROCESSING WEL OPTIONS
 END OF WEL OPTIONS

 PROCESSING WEL DIMENSIONS
    MAXBOUND =       8
 END OF WEL DIMENSIONS

 RIV   -- RIV PACKAGE, VERSION 8, 2/22/2014 INPUT READ FROM UNIT 1008
 # File generated by Flopy version 3.10.0.dev3 on 07/25/2025 at 11:52:39.

 PROCESSING RIV OPTIONS
 END OF RIV OPTIONS

 PROCESSING RIV DIMENSIONS
    MAXBOUND =      40
 END OF RIV DIMENSIONS

 RCH   -- RCH PACKAGE, VERSION 8, 2/22/2014 INPUT READ FROM UNIT 1010
 # File generated by Flopy version 3.10.0.dev3 on 07/25/2025 at 11:52:39.

 PROCESSING RCH OPTIONS
    RECHARGE INPUT WILL BE READ AS ARRAY(S).
 END OF RCHA OPTIONS

 CHD   -- CHD PACKAGE, VERSION 8, 2/22/2014 INPUT READ FROM UNIT 1011
 # File generated by Flopy version 3.10.0.dev3 on 07/25/2025 at 11:52:39.

 PROCESSING CHD OPTIONS
 END OF CHD OPTIONS

 PROCESSING CHD DIMENSIONS
    MAXBOUND =      10
 END OF CHD DIMENSIONS

 IC -- INITIAL CONDITIONS PACKAGE, VERSION 8, 3/28/2015 INPUT READ FROM UNIT 1007
 # File generated by Flopy version 3.10.0.dev3 on 07/25/2025 at 11:52:39.
 PROCESSING IC OPTIONS
 END OF IC OPTIONS
 PROCESSING GRIDDATA

     INITIAL HEAD =   45.00000    
 END PROCESSING GRIDDATA
 PROCESSING GRIDDATA

                ICELLTYPE = 1
 K33 not provided.  Assuming K33 = K.
 K22 not provided.  Assuming K22 = K.
 END PROCESSING GRIDDATA
    BINARY GRID INFORMATION WILL BE WRITTEN TO:
      UNIT NUMBER: 1016
      FILE NAME: e:\15_REPOS\01_Beta-Me\data\Freyberg\Freyberg.dis.grb

 OPENED e:\15_REPOS\01_Beta-Me\data\Freyberg\Freyberg.dis.grb
 FILE TYPE:DATA(BINARY)   UNIT 1016   STATUS:REPLACE             
 FORMAT:UNFORMATTED            ACCESS:STREAM              
 ACTION:READWRITE           

      THE LAST TIME STEP WILL BE PRINTED
      THE LAST TIME STEP WILL BE PRINTED
 # File generated by Flopy version 3.10.0.dev3 on 07/25/2025 at 11:52:39.

 PROCESSING OC OPTIONS

    BUDGET INFORMATION WILL BE WRITTEN TO:
      UNIT NUMBER: 1017
      FILE NAME: Freyberg.bud

 OPENED Freyberg.bud
 FILE TYPE:DATA(BINARY)   UNIT 1017   STATUS:REPLACE             
 FORMAT:UNFORMATTED            ACCESS:STREAM              
 ACTION:READWRITE           

    HEAD INFORMATION WILL BE WRITTEN TO:
      UNIT NUMBER: 1018
      FILE NAME: Freyberg.hds

 OPENED Freyberg.hds
 FILE TYPE:DATA(BINARY)   UNIT 1018   STATUS:REPLACE             
 FORMAT:UNFORMATTED            ACCESS:STREAM              
 ACTION:READWRITE           

 END OF OC OPTIONS

start timestep kper="1" kstp="1" mode="normal"


 BEGIN READING OUTPUT CONTROL FOR STRESS PERIOD 1
      ALL TIME STEPS WILL BE SAVED
      ALL TIME STEPS WILL BE SAVED
      ALL TIME STEPS WILL BE PRINTED
      ALL TIME STEPS WILL BE PRINTED

 END READING OUTPUT CONTROL FOR STRESS PERIOD 1

 REUSING WELS FROM LAST STRESS PERIOD

                 RECHARGE =  0.1600000E-08
1
  HEAD IN LAYER   1 AT END OF TIME STEP   1 IN STRESS PERIOD    1
  ---------------------------------------------------------------------------

                1               2               3               4               5               6               7               8               9              10
               11              12              13              14              15              16              17              18              19              20
 ................................................................................................................................................................
   1      26.4713         26.3744         26.1547         25.8080         25.4221         24.9805         24.4620         23.9951         23.4630         22.9114    
          22.3275         21.7453         21.1505         20.5693         20.1079         20.0496         20.0439         20.0416         20.0455         20.0552    
   2      26.4936         26.3902         26.1639         25.8020         25.4460         24.9953         24.4658         23.9735         23.4404         22.8381    
          22.2413         21.6635         21.0590         20.4363         19.8945         19.9273         19.9615         19.9754         19.9854         19.9962    
   3      26.5293         26.4265         26.1834         25.8185         25.4722         25.0083         24.4513         23.9503         23.3691         22.7400    
          22.0917         21.4992         20.8651         20.2607         19.6708         19.7640         19.8115         19.8381         19.8612         19.8747    
   4      26.6029         26.4858         26.2276         25.8641         25.5023         25.0394         24.4387         23.8817         23.2611         22.5086    
          21.8504         21.2606         20.6620         20.0687         19.4438         19.5312         19.6063         19.6472         19.6757         19.6913    
   5      26.6918         26.5563         26.2938         25.9485         25.5532         25.0498         24.4535         23.8248         23.0092         22.2571    
          21.6105         21.0349         20.4333         19.8356         19.2182         19.2717         19.3122         19.3873         19.4297         19.4572    
   6      26.7723         26.6639         26.4014         26.0611         25.6275         25.0791         24.4167         23.6180         22.8454         21.9738    
          21.2841         20.7309         20.1576         19.6041         18.9887         18.9552         18.9925         19.0645         19.1493         19.1795    
   7      26.8461         26.7493         26.5363         26.1924         25.7071         25.0619         24.3551         23.3799         22.4654         21.5436    
          20.9096         20.3523         19.8331         19.3317         18.7501         18.5215         18.5814         18.7029         18.7997         18.8561    
   8      26.9626         26.8584         26.6747         26.3685         25.7870         25.0671         24.2554         22.9866         21.8564         20.9919    
          20.4112         19.8836         19.4302         18.9799         18.5044         17.7636         17.9591         18.2407         18.4230         18.5262    
   9      27.0612         26.9889         26.8740         26.7627        1.000000E+30    1.000000E+30    1.000000E+30     21.8496         20.8917         20.3417    
          19.8445         19.3470         18.9239         18.5910         18.2352         15.8792         17.1754         17.7504         18.0704         18.2038    
  10      27.1336         27.0833         27.0259         26.9658        1.000000E+30    1.000000E+30    1.000000E+30    1.000000E+30     19.9892         19.6459    
          19.2035         18.7334         18.2232         18.1232         18.0195         16.4930         16.9514         17.4717         17.8202         17.9736    
  11      27.1419         27.1193         27.0861         27.0556        1.000000E+30    1.000000E+30    1.000000E+30    1.000000E+30     19.2041         18.9382    
          18.5614         17.9780         16.8206         17.5866         17.7561         14.8197         16.5736         17.2885         17.6577         17.8200    
  12      27.0881         27.0792         27.0612         27.0349        1.000000E+30    1.000000E+30    1.000000E+30    1.000000E+30     18.4799         18.2885    
          17.9607         17.5722         17.2388         17.4283         17.5820         16.7361         17.0158         17.3615         17.6133         17.7319    
  13      26.9902         26.9778         26.9530         26.9197        1.000000E+30    1.000000E+30    1.000000E+30    1.000000E+30     17.8717         17.6765    
          17.3376         17.0419         17.0382         17.2019         17.3684         17.1903         17.2712         17.4504         17.6105         17.6966    
  14      26.8152         26.8107         26.7704         26.7399        1.000000E+30    1.000000E+30    1.000000E+30    1.000000E+30     17.3518         17.0360    
          16.6240         16.1818         16.5588         16.9213         17.1483         17.2260         17.3534         17.4903         17.6011         17.6594    
  15      26.5713         26.5652         26.5308         26.5188        1.000000E+30    1.000000E+30    1.000000E+30    1.000000E+30     16.8899         16.3658    
          15.8191         14.2689         15.8955         16.5850         16.9232         17.1382         17.3356         17.4754         17.5690         17.6147    
  16      26.2705         26.2514         26.2306         26.2329        1.000000E+30    1.000000E+30    1.000000E+30    1.000000E+30     16.7571         16.4533    
          16.0791         15.6494         16.0757         16.4470         16.6995         16.9968         17.2484         17.4083         17.5066         17.5517    
  17      25.8933         25.8636         25.8565         25.8733        1.000000E+30    1.000000E+30    1.000000E+30    1.000000E+30     16.7341         16.5618    
          16.3108         16.1109         16.1881         16.3322         16.4751         16.8227         17.1135         17.3101         17.4181         17.4641    
  18      25.4958         25.4646         25.4274         25.4418        1.000000E+30    1.000000E+30    1.000000E+30    1.000000E+30     16.7453         16.6002    
          16.4117         16.2330         16.1390         16.1300         16.2503         16.6372         16.9498         17.1774         17.3043         17.3626    
  19      25.0139         24.9810         24.9391         24.9247        1.000000E+30    1.000000E+30    1.000000E+30    1.000000E+30     16.7068         16.5820    
          16.4018         16.1734         15.9043         15.6955         16.0202         16.4506         16.7964         17.0462         17.1849         17.2517    
  20      24.4623         24.4226         24.3616         24.3075        1.000000E+30    1.000000E+30    1.000000E+30    1.000000E+30     16.6249         16.4982    
          16.3103         16.0115         15.5252         14.5905         15.7790         16.2644         16.6343         16.9051         17.0655         17.1286    
  21      23.8545         23.7995         23.7056         23.6206        1.000000E+30    1.000000E+30    1.000000E+30    1.000000E+30     16.5007         16.3738    
          16.1869         15.9432         15.6015         15.2838         15.5676         16.0800         16.4744         16.7543         16.9295         17.0037    
  22      23.2407         23.1091         22.9568         22.8376        1.000000E+30    1.000000E+30     16.9288         16.7389         16.3800         16.2021    
          15.9827         15.7855         15.5529         15.3635         15.3475         15.8917         16.3271         16.6097         16.7828         16.8720    
  23      22.4989         22.3739         22.1810         21.8465         21.0707        1.000000E+30     16.9871         16.6280         16.1373         15.8578    
          15.6272         15.4733         15.3420         15.2142         15.1232         15.6926         16.1598         16.4854         16.6593         16.7479    
  24      21.8808         21.6842         21.4179         20.9939         20.0932         18.5626         17.2421         16.2960         15.7913         15.2597    
          15.0697         15.0024         14.9959         14.9602         14.8947         15.5319         16.0167         16.3374         16.5369         16.6287    
  25      21.2336         21.0188         20.7006         20.2385         19.1614         17.8793         16.8799         15.9093         15.0483         14.2745    
          14.2791         14.3753         14.5271         14.6377         14.6664         15.3281         15.8852         16.2081         16.4168         16.5107    
  26      20.6019         20.3990         20.0648         19.3122         18.4048         17.4018         16.3512         15.1182         13.7806         12.7698    
          13.2370         13.5596         13.9538         14.2805         14.4392         15.1605         15.7467         16.0889         16.3107         16.4102    
  27      19.9828         19.7969         19.4333         18.8565         17.9435         16.9426         15.7673         14.1772         12.0097         9.95717    
          11.1650         12.4820         13.2181         13.8394         14.2087         15.0115         15.6287         15.9969         16.2157         16.3177    
  28      19.5075         19.3319         19.0185         18.4936         17.6920         16.7087         15.2753         12.8925         9.43906         1.98102    
          7.99793         11.0817         12.4332         13.3457         13.9785         14.8486         15.5174         15.9106         16.1260         16.2314    
  29      19.1136         19.0429         18.8754         18.5064         17.8644         16.6844         15.2839         12.1314         8.83615         6.66831    
          8.24852         10.5594         11.8621         12.9232         13.7473         14.6863         15.4287         15.8305         16.0488         16.1473    
  30      18.8841         19.0678         19.2098         19.2627         18.8921         17.6998         14.9786         11.2200         8.20352         7.47803    
          8.71989         10.2842         11.4010         12.5008         13.5183         14.5035         15.2925         15.7265         15.9428         16.0406    
  31      19.0034         19.4386         20.1272         20.8329         21.6030         19.3815         14.9163         9.74968         6.61711         6.61584    
          7.99086         9.54842         10.7882         11.9538         13.2880         14.3261         15.1129         15.5812         15.7904         15.8662    
  32      19.1686         20.4230         22.2283         26.8724         27.3858         24.7324         15.9516         10.6875         4.32117         5.25246    
          6.31371         8.19691         9.93976         11.2927         13.0600         14.0526         14.8061         15.2948         15.5468         15.6247    
  33     1.000000E+30     22.2974         26.6061         34.6676         39.5908         27.5635         26.2150         12.8420         3.63033         2.95783    
          3.48920         5.56936         7.60565         10.8503         12.8233         13.6249         14.4141         14.9588         15.2507         15.3609    
  34     1.000000E+30    1.000000E+30     39.3249         44.2197         56.1135         51.7581         175.494         40.5173         13.4102         7.47121    
          1.18028        0.660054        0.265621         9.68552         12.5913         13.4448         14.1445         14.6918         14.9895         15.1449    
  35     1.000000E+30    1.000000E+30    1.000000E+30     67.8207         181.246         170.155         123.246         35.1823         18.0414         14.9628    
          4.72117         4.73475         7.19545         10.2455         12.3738         13.2471         13.9105         14.4438         14.7548         15.0058    
  36     1.000000E+30    1.000000E+30    1.000000E+30    1.000000E+30     258.187         171.383         120.028         54.4403         27.3276         14.9999    
          6.96183         7.06273         8.99615         10.8754         12.1551         13.0560         13.7198         14.1901         14.4371        1.000000E+30
  37     1.000000E+30    1.000000E+30    1.000000E+30    1.000000E+30     224.388         136.693         86.8698         43.7808         27.0175         16.2126    
          5.49454         8.03119         9.88428         11.2004         11.9367         12.9176         13.5221         13.9671         14.2693        1.000000E+30
  38     1.000000E+30    1.000000E+30    1.000000E+30    1.000000E+30    1.000000E+30     67.8495         49.9519         32.7712         24.0601         16.3920    
          10.9076         10.4196         11.0258         11.5123         11.7147         12.7564         13.3082         13.7286        1.000000E+30    1.000000E+30
  39     1.000000E+30    1.000000E+30    1.000000E+30    1.000000E+30    1.000000E+30     34.6518         29.6285         23.6589         20.1794         16.0622    
          13.2118         12.1043         11.9456         11.8154         11.4912         12.5970         13.0433        1.000000E+30    1.000000E+30    1.000000E+30
  40     1.000000E+30    1.000000E+30    1.000000E+30    1.000000E+30    1.000000E+30     16.9000         16.4000         16.1000         15.6000         15.1000    
          14.0000         13.0000         12.5000         12.0000         11.4000        1.000000E+30    1.000000E+30    1.000000E+30    1.000000E+30    1.000000E+30

 HEAD WILL BE SAVED ON UNIT 1018 AT END OF TIME STEP    1, STRESS PERIOD    1


  VOLUME BUDGET FOR ENTIRE MODEL AT END OF TIME STEP    1, STRESS PERIOD   1
  ---------------------------------------------------------------------------------------------------

     CUMULATIVE VOLUME      L**3       RATES FOR THIS TIME STEP      L**3/T          PACKAGE NAME    
     ------------------                 ------------------------                     ----------------

           IN:                                      IN:
           ---                                      ---
                 WEL =           0.0000                   WEL =           0.0000     WEL-1           
                 WEL =           0.0000                   WEL =           0.0000     CF-1            
                 WEL =           0.0000                   WEL =           0.0000     WEL_0           
                 RIV =       1.3515E-02                   RIV =       1.3515E-02     RIV-1           
                RCHA =       6.9500E-02                  RCHA =       6.9500E-02     RCHA_0          
                 CHD =       6.7288E-04                   CHD =       6.7288E-04     CHD_0           

            TOTAL IN =       8.3687E-02              TOTAL IN =       8.3687E-02

          OUT:                                     OUT:
          ----                                     ----
                 WEL =       2.2050E-02                   WEL =       2.2050E-02     WEL-1           
                 WEL =           0.0000                   WEL =           0.0000     CF-1            
                 WEL =       5.4423E-02                   WEL =       5.4423E-02     WEL_0           
                 RIV =       1.4044E-02                   RIV =       1.4044E-02     RIV-1           
                RCHA =           0.0000                  RCHA =           0.0000     RCHA_0          
                 CHD =       7.3550E-02                   CHD =       7.3550E-02     CHD_0           

           TOTAL OUT =           0.1641             TOTAL OUT =           0.1641

            IN - OUT =      -8.0380E-02              IN - OUT =      -8.0380E-02

 PERCENT DISCREPANCY =         -64.89     PERCENT DISCREPANCY =         -64.89




         TIME SUMMARY AT END OF TIME STEP    1 IN STRESS PERIOD    1
                    SECONDS     MINUTES      HOURS       DAYS        YEARS
                    -----------------------------------------------------------
   TIME STEP LENGTH  1.0000     1.66667E-02 2.77778E-04 1.15741E-05 3.16881E-08
 STRESS PERIOD TIME  1.0000     1.66667E-02 2.77778E-04 1.15741E-05 3.16881E-08
         TOTAL TIME  1.0000     1.66667E-02 2.77778E-04 1.15741E-05 3.16881E-08


         ****FAILED TO MEET SOLVER CONVERGENCE CRITERIA IN TIME STEP 1 OF STRESS PERIOD 1****

end timestep

