                                   MODFLOW 6
                U.S. GEOLOGICAL SURVEY MODULAR HYDROLOGIC MODEL
                            VERSION 6.6.1 02/10/2025

   MODFLOW 6 compiled Feb 14 2025 13:40:10 with Intel(R) Fortran Intel(R) 64
   Compiler Classic for applications running on Intel(R) 64, Version 2021.7.0
                             Build 20220726_000000

This software has been approved for release by the U.S. Geological 
Survey (USGS). Although the software has been subjected to rigorous 
review, the USGS reserves the right to update the software as needed 
pursuant to further analysis and review. No warranty, expressed or 
implied, is made by the USGS or the U.S. Government as to the 
functionality of the software and related material nor shall the 
fact of release constitute any such warranty. Furthermore, the 
software is released on condition that neither the USGS nor the U.S. 
Government shall be held liable for any damages resulting from its 
authorized or unauthorized use. Also refer to the USGS Water 
Resources Software User Rights Notice for complete use, copyright, 
and distribution information.


As a work of the United States Government, this USGS product is 
in the public domain within the United States. You can copy, 
modify, distribute, and perform the work, even for commercial 
purposes, all without asking permission. Additionally, USGS 
waives copyright and related rights in the work worldwide 
through CC0 1.0 Universal Public Domain Dedication 
(https://creativecommons.org/publicdomain/zero/1.0/).

The following GNU Lesser General Public License (LGPL) libraries
are used in this USGS product:

    SPARSKIT version 2.0
      ilut, luson, and qsplit 
      (https://www-users.cse.umn.edu/~saad/software/SPARSKIT/)

    RCM - Reverse Cuthill McKee Ordering
      (https://people.math.sc.edu/Burkardt/f_src/rcm/rcm.html)

    BLAS - Basic Linear Algebra Subprograms Level 1
      (https://people.math.sc.edu/Burkardt/f_src/blas1_d/blas1_d.html)

    SPARSEKIT - Sparse Matrix Utility Package
      amux, dperm, dvperm, rperm, and cperm
      (https://people.sc.fsu.edu/~jburkardt/f77_src/sparsekit/sparsekit.html)

The following BSD-3 License libraries are used in this USGS product:

    Modern Fortran DAG Library
      Copyright (c) 2018, Jacob Williams
      All rights reserved.
      (https://github.com/jacobwilliams/daglib)

MODFLOW 6 compiler options: /O2 /heap-arrays:0 /fpe:0 /traceback /nologo /fpp
/c /module:win64\mod_mf6\ /object:win64\obj_mf6\

System command used to initiate simulation:
C:\Users\gross.DESKTOP-AIRQM2M\anaconda3\Scripts\mf6.exe

MODFLOW was compiled using uniform precision.

Real Variables
  KIND: 8
  TINY (smallest non-zero value):    2.225074-308
  HUGE (largest value):    1.797693+308
  PRECISION: 15
  SIZE IN BITS: 64

Integer Variables
  KIND: 4
  HUGE (largest value): 2147483647
  SIZE IN BITS: 32

Long Integer Variables
  KIND: 8
  HUGE (largest value): 9223372036854775807
  SIZE IN BITS: 64

Logical Variables
  KIND: 4
  SIZE IN BITS: 32
 

 OPENED mfsim.nam
 FILE TYPE:NAM6               UNIT 1001   STATUS:OLD                 
 FORMAT:FORMATTED              ACCESS:SEQUENTIAL          
 ACTION:READ                

 # shellmound model version 0.post3.dev0+ge07a693
 # File generated by Flopy version 3.10.0.dev1 on 11/19/2025 at 17:14:40.
 # via modflow-setup version 0.6.0 at 2025-11-19 17:14:41

 OPENED mfsim.tdis
 FILE TYPE:TDIS6              UNIT 1002   STATUS:OLD                 
 FORMAT:FORMATTED              ACCESS:SEQUENTIAL          
 ACTION:READ                

 # shellmound model version 0.post3.dev0+ge07a693
 # File generated by Flopy version 3.10.0.dev1 on 11/19/2025 at 17:14:40.
 # via modflow-setup version 0.6.0 at 2025-11-19 17:14:41
 # perlen nstp tsmult

 OPENED shellmound.nam
 FILE TYPE:GWF6               UNIT 1003   STATUS:OLD                 
 FORMAT:FORMATTED              ACCESS:SEQUENTIAL          
 ACTION:READ                

 # shellmound model version 0.post3.dev0+ge07a693
 # File generated by Flopy version 3.10.0.dev1 on 11/19/2025 at 17:14:40.
 # via modflow-setup version 0.6.0 at 2025-11-19 17:14:41

 OPENED shellmound.dis
 FILE TYPE:DIS6               UNIT 1004   STATUS:OLD                 
 FORMAT:FORMATTED              ACCESS:SEQUENTIAL          
 ACTION:READ                

 # shellmound model version 0.post3.dev0+ge07a693
 # File generated by Flopy version 3.10.0.dev1 on 11/19/2025 at 17:14:40.
 # via modflow-setup version 0.6.0 at 2025-11-19 17:14:41

 OPENED shellmound.npf
 FILE TYPE:NPF6               UNIT 1032   STATUS:OLD                 
 FORMAT:FORMATTED              ACCESS:SEQUENTIAL          
 ACTION:READ                

 # shellmound model version 0.post3.dev0+ge07a693
 # File generated by Flopy version 3.10.0.dev1 on 11/19/2025 at 17:14:40.
 # via modflow-setup version 0.6.0 at 2025-11-19 17:14:41

 OPENED shellmound.sto
 FILE TYPE:STO6               UNIT 1059   STATUS:OLD                 
 FORMAT:FORMATTED              ACCESS:SEQUENTIAL          
 ACTION:READ                

 # shellmound model version 0.post3.dev0+ge07a693
 # File generated by Flopy version 3.10.0.dev1 on 11/19/2025 at 17:14:40.
 # via modflow-setup version 0.6.0 at 2025-11-19 17:14:41

 OPENED shellmound.ic
 FILE TYPE:IC6                UNIT 1086   STATUS:OLD                 
 FORMAT:FORMATTED              ACCESS:SEQUENTIAL          
 ACTION:READ                

 # shellmound model version 0.post3.dev0+ge07a693
 # File generated by Flopy version 3.10.0.dev1 on 11/19/2025 at 17:14:40.
 # via modflow-setup version 0.6.0 at 2025-11-19 17:14:41

 OPENED shellmound.oc
 FILE TYPE:OC6       UNIT 1100   STATUS:OLD                 
 FORMAT:FORMATTED              ACCESS:SEQUENTIAL          
 ACTION:READ                


 OPENED shellmound.obs
 FILE TYPE:OBS6      UNIT 1101   STATUS:OLD                 
 FORMAT:FORMATTED              ACCESS:SEQUENTIAL          
 ACTION:READ                


 OPENED shellmound.wel
 FILE TYPE:WEL6               UNIT 1102   STATUS:OLD                 
 FORMAT:FORMATTED              ACCESS:SEQUENTIAL          
 ACTION:READ                

 # shellmound model version 0.post3.dev0+ge07a693
 # File generated by Flopy version 3.10.0.dev1 on 11/19/2025 at 17:14:41.
 # via modflow-setup version 0.6.0 at 2025-11-19 17:14:41

 OPENED shellmound.drn
 FILE TYPE:DRN6               UNIT 1103   STATUS:OLD                 
 FORMAT:FORMATTED              ACCESS:SEQUENTIAL          
 ACTION:READ                

 # shellmound model version 0.post3.dev0+ge07a693
 # File generated by Flopy version 3.10.0.dev1 on 11/19/2025 at 17:14:40.
 # via modflow-setup version 0.6.0 at 2025-11-19 17:14:41

 OPENED shellmound.riv
 FILE TYPE:RIV6               UNIT 1104   STATUS:OLD                 
 FORMAT:FORMATTED              ACCESS:SEQUENTIAL          
 ACTION:READ                

 # shellmound model version 0.post3.dev0+ge07a693
 # File generated by Flopy version 3.10.0.dev1 on 11/19/2025 at 17:14:41.
 # via modflow-setup version 0.6.0 at 2025-11-19 17:14:41

 OPENED shellmound.ghb
 FILE TYPE:GHB6               UNIT 1105   STATUS:OLD                 
 FORMAT:FORMATTED              ACCESS:SEQUENTIAL          
 ACTION:READ                

 # shellmound model version 0.post3.dev0+ge07a693
 # File generated by Flopy version 3.10.0.dev1 on 11/19/2025 at 17:14:40.
 # via modflow-setup version 0.6.0 at 2025-11-19 17:14:41

 OPENED shellmound.rcha
 FILE TYPE:RCH6               UNIT 1107   STATUS:OLD                 
 FORMAT:FORMATTED              ACCESS:SEQUENTIAL          
 ACTION:READ                

 # shellmound model version 0.post3.dev0+ge07a693
 # File generated by Flopy version 3.10.0.dev1 on 11/19/2025 at 17:14:40.
 # via modflow-setup version 0.6.0 at 2025-11-19 17:14:41

 OPENED shellmound.chd
 FILE TYPE:CHD6               UNIT 1108   STATUS:OLD                 
 FORMAT:FORMATTED              ACCESS:SEQUENTIAL          
 ACTION:READ                

 # shellmound model version 0.post3.dev0+ge07a693
 # File generated by Flopy version 3.10.0.dev1 on 11/19/2025 at 17:14:40.
 # via modflow-setup version 0.6.0 at 2025-11-19 17:14:41

 OPENED shellmound.sfr
 FILE TYPE:SFR6      UNIT 1109   STATUS:OLD                 
 FORMAT:FORMATTED              ACCESS:SEQUENTIAL          
 ACTION:READ                


 READING SIMULATION OPTIONS
    SIMULATION WILL CONTINUE EVEN IF THERE IS NONCONVERGENCE.
    MAXIMUM NUMBER OF ERRORS THAT WILL BE STORED IS 1000
 END OF SIMULATION OPTIONS

 READING SIMULATION TIMING

 TDIS -- TEMPORAL DISCRETIZATION PACKAGE,
 VERSION 1 : 11/13/2014 - INPUT READ FROM MEMPATH: __INPUT__/SIM/TDIS                                
 PROCESSING TDIS OPTIONS
    SIMULATION TIME UNIT IS DAYS
    SIMULATION STARTING DATE AND TIME IS 1998-04-01                    
 END OF TDIS OPTIONS
 PROCESSING TDIS DIMENSIONS
   19 STRESS PERIOD(S) IN SIMULATION
 END OF TDIS DIMENSIONS
 PROCESSING TDIS PERIODDATA


 STRESS PERIOD     LENGTH       TIME STEPS     MULTIPLIER FOR DELT
 ----------------------------------------------------------------------------
        1         1.000000          1                    1.000
        2         3287.000         10                    1.500
        3         183.0000          5                    1.500
        4         183.0000          5                    1.500
        5         183.0000          5                    1.500
        6         182.0000          5                    1.500
        7         183.0000          5                    1.500
        8         182.0000          5                    1.500
        9         183.0000          5                    1.500
       10         182.0000          5                    1.500
       11         183.0000          5                    1.500
       12         183.0000          5                    1.500
       13         183.0000          5                    1.500
       14         182.0000          5                    1.500
       15         183.0000          5                    1.500
       16         182.0000          5                    1.500
       17         183.0000          5                    1.500
       18         182.0000          5                    1.500
       19         183.0000          5                    1.500
 END OF TDIS PERIODDATA
 END OF SIMULATION TIMING

 READING SIMULATION MODELS
    GWF6 model 1 will be created
 END OF SIMULATION MODELS

 READING SIMULATION EXCHANGES
 END OF SIMULATION EXCHANGES

 READING SOLUTIONGROUP

 Creating solution: SLN_1           

 OPENED mfsim.ims
 FILE TYPE:IMS   UNIT 1111   STATUS:OLD                 
 FORMAT:FORMATTED              ACCESS:SEQUENTIAL          
 ACTION:READ                

 END OF SOLUTIONGROUP

PROCESSING MODEL CONNECTIONS

 OPENED .\external\wel_001.dat
 FILE TYPE:OPEN/CLOSE   UNIT 1120   STATUS:OLD                 
 FORMAT:FORMATTED              ACCESS:SEQUENTIAL          
 ACTION:READ                


 OPENED .\external\drn_000.dat
 FILE TYPE:OPEN/CLOSE   UNIT 1121   STATUS:OLD                 
 FORMAT:FORMATTED              ACCESS:SEQUENTIAL          
 ACTION:READ                


 OPENED .\external\riv_000.dat
 FILE TYPE:OPEN/CLOSE   UNIT 1122   STATUS:OLD                 
 FORMAT:FORMATTED              ACCESS:SEQUENTIAL          
 ACTION:READ                


 OPENED .\external\ghb_000.dat
 FILE TYPE:OPEN/CLOSE   UNIT 1123   STATUS:OLD                 
 FORMAT:FORMATTED              ACCESS:SEQUENTIAL          
 ACTION:READ                


 OPENED .\external\chd_000.dat
 FILE TYPE:OPEN/CLOSE   UNIT 1124   STATUS:OLD                 
 FORMAT:FORMATTED              ACCESS:SEQUENTIAL          
 ACTION:READ                


 IMS -- ITERATIVE MODEL SOLUTION PACKAGE, VERSION 6, 4/28/2017
         INPUT READ FROM UNIT 1111
 # shellmound model version 0.post3.dev0+ge07a693
 # File generated by Flopy version 3.10.0.dev1 on 11/19/2025 at 17:14:40.
 # via modflow-setup version 0.6.0 at 2025-11-19 17:14:41

 PROCESSING IMS OPTIONS
 MODERATE OPTION:
 DEFAULT SOLVER INPUT VALUES REFLECT MODERATELY NONLINEAR MODEL

 OPENED solver_outer_out.csv
 FILE TYPE:CSV_OUTER_OUTPUT   UNIT 1134   STATUS:REPLACE             
 FORMAT:FORMATTED              ACCESS:SEQUENTIAL          
 ACTION:READWRITE           

    CSV OUTPUT WILL BE SAVED TO FILE: solver_outer_out.csv
    OPENED ON UNIT:    1134
 END OF IMS OPTIONS

 PROCESSING IMS NONLINEAR
 END OF IMS NONLINEAR DATA
 **UNDER-RELAXATION WILL BE USED***
 

 PROCESSING LINEAR DATA
 END OF LINEAR DATA
 ***IMS LINEAR SOLVER WILL BE USED***

 IMSLINEAR -- UNSTRUCTURED LINEAR SOLUTION PACKAGE, VERSION 8, 04/28/2017
 An asymmetric matrix will be solved

 OUTER ITERATION CONVERGENCE CRITERION    (DVCLOSE) =    0.100000E+00
 MAXIMUM NUMBER OF OUTER ITERATIONS        (MXITER) = 200
 SOLVER PRINTOUT INDEX                     (IPRIMS) = 2
 NONLINEAR ITERATION METHOD            (NONLINMETH) = 3
 LINEAR SOLUTION METHOD                   (LINMETH) = 1
 UNDER-RELAXATION WEIGHT REDUCTION FACTOR   (THETA) =    0.700000E+00
 UNDER-RELAXATION WEIGHT INCREASE INCREMENT (KAPPA) =    0.100000E+00
 UNDER-RELAXATION PREVIOUS HISTORY FACTOR   (GAMMA) =    0.000000E+00
 UNDER-RELAXATION MOMENTUM TERM         (AMOMENTUM) =    0.000000E+00

       SOLUTION BY THE BICONJUGATE-GRADIENT STABILIZED METHOD
 ------------------------------------------------------------------
 MAXIMUM OF 200 CALLS OF SOLUTION ROUTINE
 MAXIMUM OF 100 INTERNAL ITERATIONS PER CALL TO SOLUTION ROUTINE
 LINEAR ACCELERATION METHOD            = BCGS      
 MATRIX PRECONDITIONING TYPE           = INCOMPLETE LUT      
 MATRIX SCALING APPROACH               = NO SCALING          
 MATRIX REORDERING APPROACH            = ORIGINAL ORDERING        
 NUMBER OF ORTHOGONALIZATIONS          = 0
 HEAD CHANGE CRITERION FOR CLOSURE     =    0.10000E-01
 RESIDUAL CHANGE CRITERION FOR CLOSURE =    0.10000E-03
 RESIDUAL CONVERGENCE OPTION           = 3
 RESIDUAL CONVERGENCE NORM             = RELATIVE L2NORM 
 RELAXATION FACTOR                     =    0.00000E+00
 NUMBER OF LEVELS                      =              7
 DROP TOLERANCE                        =    0.10000E-02


 
    Solving:  Stress period:     1    Time step:     1
 
1
 STRESS PERIOD NO. 1, LENGTH =   1.000000    
 ------------------------------------------
 NUMBER OF TIME STEPS = 1
 MULTIPLIER FOR DELT =     1.000
 #k i j elev cond boundname
 #k i j stage cond rbot boundname
 #k i j bhead cond boundname

 OPENED .\external\ghb_001.dat
 FILE TYPE:OPEN/CLOSE   UNIT 1135   STATUS:OLD                 
 FORMAT:FORMATTED              ACCESS:SEQUENTIAL          
 ACTION:READ                

 #k i j head boundname

 OPENED .\external\chd_001.dat
 FILE TYPE:OPEN/CLOSE   UNIT 1138   STATUS:OLD                 
 FORMAT:FORMATTED              ACCESS:SEQUENTIAL          
 ACTION:READ                

 INITIAL TIME STEP SIZE =   1.000000    



 PSEUDO-TRANSIENT CONTINUATION WILL BE APPLIED TO MODEL 1 ("SHELLMOUND") DURING THIS TIME STEP

 SLN_1 OUTER ITERATION SUMMARY
 ----------------------------------------------------------------------------------------------------------
                                OUTER      INNER                    STEP   MAXIMUM CHANGE MODEL-(CELLID) OR
 OUTER ITERATION STEP       ITERATION  ITERATION  MAXIMUM CHANGE SUCCESS             MODEL-PACKAGE-(NUMBER)
 ----------------------------------------------------------------------------------------------------------
 Model                              1         10       17.963943                              1_GWF-(1,9,5)
 Model                              2         12       2.1135854                            1_GWF-(4,14,13)
 Model                              3          8      0.43830048                            1_GWF-(1,24,12)
 Model                              4          4  9.57922241E-02       *                    1_GWF-(1,24,12)
 Package                            4             3.43024183E-02       *            1_GWF-SFR_0-(182)-stage
 ----------------------------------------------------------------------------------------------------------


 4 CALLS TO NUMERICAL SOLUTION IN TIME STEP 1 STRESS PERIOD 1
 34 TOTAL ITERATIONS

 SLN_1 INNER ITERATION SUMMARY
 --------------------------------------------------------------------------------------------------------------------------------------
      TOTAL      OUTER      INNER                                                            MAXIMUM                                   
  ITERATION  ITERATION  ITERATION  MAXIMUM CHANGE      MAXIMUM CHANGE MODEL-(CELLID)        RESIDUAL    MAXIMUM RESIDUAL MODEL-(CELLID)
 --------------------------------------------------------------------------------------------------------------------------------------
          1          1          1       15.157178                     1_GWF-(1,11,6)      -22434.422                      1_GWF-(9,8,4)
          2          1          2       5.8223697                      1_GWF-(1,9,3)      -5539.9765                      1_GWF-(9,9,3)
          3          1          3       5.6355059                     1_GWF-(1,10,3)      -2470.2469                      1_GWF-(9,9,3)
          4          1          4       2.5176219                     1_GWF-(1,11,3)      -914.22766                     1_GWF-(8,10,3)
          5          1          5       1.6970880                     1_GWF-(1,11,3)       467.55257                      1_GWF-(8,3,3)
          6          1          6      0.62472189                     1_GWF-(1,12,3)       210.08241                     1_GWF-(2,25,5)
          7          1          7      0.28427226                     1_GWF-(1,12,3)       170.06941                      1_GWF-(9,3,3)
          8          1          8     -0.11387623                    1_GWF-(10,25,6)       100.23491                     1_GWF-(2,25,5)
          9          1          9     -0.11278252                    1_GWF-(10,25,6)       72.781764                     1_GWF-(2,25,5)
         10          1         10     -0.14466974                    1_GWF-(10,25,7)       26.881749                     1_GWF-(2,25,5)
         11          2          1       2.0691118                    1_GWF-(4,13,12)      -1050.2571                     1_GWF-(5,13,9)
         12          2          2      0.44799376                     1_GWF-(4,14,9)      -219.17596                   1_GWF-(10,26,10)
         13          2          3      0.16270407                     1_GWF-(4,15,9)      -126.59318                    1_GWF-(9,26,10)
         14          2          4      0.12855620                     1_GWF-(1,19,9)      -87.245212                    1_GWF-(10,25,9)
         15          2          5  6.87789567E-02                     1_GWF-(1,19,8)       41.052829                      1_GWF-(9,3,3)
         16          2          6  6.60916906E-02                     1_GWF-(1,20,8)       30.233076                      1_GWF-(9,3,3)
         17          2          7  3.46751120E-02                     1_GWF-(1,20,8)      -18.747456                     1_GWF-(3,21,7)
         18          2          8  2.66774921E-02                     1_GWF-(1,21,7)      -14.224771                    1_GWF-(10,24,6)
         19          2          9  1.71338135E-02                     1_GWF-(1,21,7)      -10.664385                    1_GWF-(10,24,6)
         20          2         10  1.89619475E-02                     1_GWF-(1,22,7)      -7.5230487                    1_GWF-(10,24,6)
         21          2         11 -1.29220778E-02                     1_GWF-(1,23,7)      -9.2379594                    1_GWF-(10,24,5)
         22          2         12  4.54610767E-02                    1_GWF-(10,24,6)       2.0321590                      1_GWF-(8,4,3)
         23          3          1      0.35290016                   1_GWF-(13,24,12)      -284.28514                    1_GWF-(9,26,12)
         24          3          2  9.19813942E-02                    1_GWF-(1,26,13)      -83.350200                   1_GWF-(10,27,13)
         25          3          3  6.17408670E-02                   1_GWF-(10,27,13)      -40.522055                    1_GWF-(10,25,9)
         26          3          4  2.66211603E-02                   1_GWF-(10,26,10)      -20.241150                     1_GWF-(9,25,9)
         27          3          5  2.61925872E-02                     1_GWF-(1,24,9)      -13.909623                     1_GWF-(9,25,9)
         28          3          6  1.16456087E-02                    1_GWF-(10,25,9)      -6.4865121                    1_GWF-(10,24,8)
         29          3          7  1.48599740E-02                     1_GWF-(1,23,8)      -5.6043660                    1_GWF-(10,24,6)
         30          3          8  5.71487559E-03                    1_GWF-(10,24,8)      -3.2549264                    1_GWF-(10,24,6)
         31          4          1  8.61303880E-02                   1_GWF-(13,24,12)      -63.819213                   1_GWF-(10,26,12)
         32          4          2  2.11501811E-02                    1_GWF-(1,27,13)      -21.272705                   1_GWF-(10,26,10)
         33          4          3  1.53701808E-02                   1_GWF-(10,27,13)      -10.234085                    1_GWF-(10,25,9)
         34          4          4  6.84606896E-03                   1_GWF-(10,26,10)      -6.2735328                    1_GWF-(10,25,9)
 --------------------------------------------------------------------------------------------------------------------------------------


 
    Solving:  Stress period:     2    Time step:     1
 
1
 STRESS PERIOD NO. 2, LENGTH =   3287.000    
 ------------------------------------------
 NUMBER OF TIME STEPS = 10
 MULTIPLIER FOR DELT =     1.500
 #k i j q boundname

 OPENED .\external\wel_002.dat
 FILE TYPE:OPEN/CLOSE   UNIT 1139   STATUS:OLD                 
 FORMAT:FORMATTED              ACCESS:SEQUENTIAL          
 ACTION:READ                

 #k i j bhead cond boundname

 OPENED .\external\ghb_002.dat
 FILE TYPE:OPEN/CLOSE   UNIT 1140   STATUS:OLD                 
 FORMAT:FORMATTED              ACCESS:SEQUENTIAL          
 ACTION:READ                

 #k i j head boundname

 OPENED .\external\chd_002.dat
 FILE TYPE:OPEN/CLOSE   UNIT 1142   STATUS:OLD                 
 FORMAT:FORMATTED              ACCESS:SEQUENTIAL          
 ACTION:READ                

 INITIAL TIME STEP SIZE =   29.00377    

 SLN_1 OUTER ITERATION SUMMARY
 ----------------------------------------------------------------------------------------------------------
                                OUTER      INNER                    STEP   MAXIMUM CHANGE MODEL-(CELLID) OR
 OUTER ITERATION STEP       ITERATION  ITERATION  MAXIMUM CHANGE SUCCESS             MODEL-PACKAGE-(NUMBER)
 ----------------------------------------------------------------------------------------------------------
 Model                              1          7       1.1795871                              1_GWF-(1,8,4)
 Model                              2          5      0.22225712                             1_GWF-(1,23,9)
 Model                              3          3  6.66393690E-02       *                     1_GWF-(1,23,9)
 Package                            3                 -1113.2370                   1_GWF-SFR_0-(123)-inflow
 Model                              4          2  1.37407727E-02       *                     1_GWF-(1,23,9)
 Package                            4                 -97.729308                   1_GWF-SFR_0-(123)-inflow
 Model                              5          1  1.70201418E-03       *                    1_GWF-(1,20,10)
 Package                            5                 -7.6117057                   1_GWF-SFR_0-(123)-inflow
 Model                              6          1  1.88610765E-03       *                     1_GWF-(1,20,9)
 Package                            6                -0.73607856                   1_GWF-SFR_0-(123)-inflow
 Model                              7          1  9.20665974E-04       *                     1_GWF-(1,19,9)
 Package                            7                -0.92183985                   1_GWF-SFR_0-(123)-inflow
 Model                              8          1  2.34891364E-04       *                     1_GWF-(1,19,9)
 Package                            8                -0.42035432                   1_GWF-SFR_0-(123)-inflow
 Model                              9          1  2.71124204E-04       *                     1_GWF-(1,19,9)
 Package                            9                -0.14664290                   1_GWF-SFR_0-(123)-inflow
 Model                             10          1  2.15973052E-05       *                     1_GWF-(1,19,9)
 Package                           10                -0.15331724                   1_GWF-SFR_0-(123)-inflow
 Model                             11          1  2.59520116E-05       *                     1_GWF-(1,19,9)
 Package                           11            -2.04392952E-02       *           1_GWF-SFR_0-(123)-inflow
 ----------------------------------------------------------------------------------------------------------


 11 CALLS TO NUMERICAL SOLUTION IN TIME STEP 1 STRESS PERIOD 2
 24 TOTAL ITERATIONS

 SLN_1 INNER ITERATION SUMMARY
 --------------------------------------------------------------------------------------------------------------------------------------
      TOTAL      OUTER      INNER                                                            MAXIMUM                                   
  ITERATION  ITERATION  ITERATION  MAXIMUM CHANGE      MAXIMUM CHANGE MODEL-(CELLID)        RESIDUAL    MAXIMUM RESIDUAL MODEL-(CELLID)
 --------------------------------------------------------------------------------------------------------------------------------------
          1          1          1       1.0267630                     1_GWF-(4,12,7)      -1531.4949                      1_GWF-(9,8,4)
          2          1          2      0.38697083                      1_GWF-(1,9,3)      -342.71138                      1_GWF-(9,9,3)
          3          1          3      0.36691773                     1_GWF-(1,10,3)      -144.52479                      1_GWF-(9,8,4)
          4          1          4      0.10957633                     1_GWF-(1,11,3)      -43.879798                      1_GWF-(9,9,3)
          5          1          5  6.58914383E-02                     1_GWF-(1,11,3)      -16.727601                      1_GWF-(9,8,4)
          6          1          6  2.07818602E-02                     1_GWF-(1,11,3)      -4.9739034                     1_GWF-(1,12,4)
          7          1          7  7.45447572E-03                     1_GWF-(1,12,3)       2.5760108                      1_GWF-(8,7,6)
          8          2          1      0.17875514                     1_GWF-(1,23,9)      -72.138920                     1_GWF-(1,23,9)
          9          2          2  3.70771343E-02                    1_GWF-(1,22,10)      -24.561797                    1_GWF-(1,21,10)
         10          2          3  2.57514513E-02                    1_GWF-(1,22,10)      -13.274923                     1_GWF-(2,19,9)
         11          2          4  1.66717828E-02                     1_GWF-(1,20,9)      -4.8645098                     1_GWF-(2,19,9)
         12          2          5  5.75244669E-03                     1_GWF-(1,19,9)      -1.8655994                      1_GWF-(8,9,3)
         13          3          1  5.35616263E-02                     1_GWF-(1,23,9)      -23.997074                     1_GWF-(1,23,9)
         14          3          2  1.47414127E-02                    1_GWF-(1,22,10)      -7.8878475                     1_GWF-(1,20,9)
         15          3          3  9.41118297E-03                    1_GWF-(1,21,10)      -3.6122595                     1_GWF-(2,19,9)
         16          4          1  1.11162390E-02                     1_GWF-(1,23,9)      -5.8924503                     1_GWF-(1,23,9)
         17          4          2  4.83005060E-03                    1_GWF-(1,22,10)      -2.2058080                     1_GWF-(1,20,9)
         18          5          1  1.70201418E-03                    1_GWF-(1,20,10)      -1.6455599                     1_GWF-(1,20,9)
         19          6          1  1.88610765E-03                     1_GWF-(1,20,9)      0.86578974                    1_GWF-(4,23,14)
         20          7          1  9.20665974E-04                     1_GWF-(1,19,9)     -0.34612997                     1_GWF-(1,23,9)
         21          8          1  2.34891364E-04                     1_GWF-(1,19,9)     -0.16280636                     1_GWF-(2,19,9)
         22          9          1  2.71124204E-04                     1_GWF-(1,19,9)     -0.13133864                     1_GWF-(1,23,9)
         23         10          1  2.15973052E-05                     1_GWF-(1,19,9) -1.97761002E-02                      1_GWF-(8,9,3)
         24         11          1  2.59520116E-05                     1_GWF-(1,19,9) -9.61262409E-03                     1_GWF-(1,23,9)
 --------------------------------------------------------------------------------------------------------------------------------------


 
    Solving:  Stress period:     2    Time step:     2
 

 SLN_1 OUTER ITERATION SUMMARY
 ----------------------------------------------------------------------------------------------------------
                                OUTER      INNER                    STEP   MAXIMUM CHANGE MODEL-(CELLID) OR
 OUTER ITERATION STEP       ITERATION  ITERATION  MAXIMUM CHANGE SUCCESS             MODEL-PACKAGE-(NUMBER)
 ----------------------------------------------------------------------------------------------------------
 Model                              1          5     -0.26283294                             1_GWF-(1,22,7)
 Model                              2          2 -2.49372021E-02       *                     1_GWF-(1,27,8)
 Package                            2                  307.21798                    1_GWF-SFR_0-(69)-inflow
 Model                              3          1  7.22214559E-03       *                     1_GWF-(1,22,8)
 Package                            3                  76.992922                   1_GWF-SFR_0-(123)-inflow
 Model                              4          1  1.90068605E-03       *                     1_GWF-(1,22,8)
 Package                            4                  16.789881                   1_GWF-SFR_0-(123)-inflow
 Model                              5          1  3.35448073E-04       *                     1_GWF-(1,22,8)
 Package                            5                  3.9237622                   1_GWF-SFR_0-(123)-inflow
 Model                              6          1 -1.97119541E-04       *                   1_GWF-(10,25,10)
 Package                            6                  1.0881503                   1_GWF-SFR_0-(123)-inflow
 Model                              7          1 -2.13438078E-04       *                     1_GWF-(1,12,3)
 Package                            7                 0.60668519                   1_GWF-SFR_0-(123)-inflow
 Model                              8          1 -1.04466156E-04       *                     1_GWF-(1,12,3)
 Package                            8                 0.40868999                   1_GWF-SFR_0-(123)-inflow
 Model                              9          1 -7.14399366E-05       *                     1_GWF-(1,12,3)
 Package                            9                 0.15107038                   1_GWF-SFR_0-(123)-inflow
 Model                             10          1 -3.03758749E-05       *                     1_GWF-(1,11,3)
 Package                           10             8.26877560E-02       *           1_GWF-SFR_0-(123)-inflow
 ----------------------------------------------------------------------------------------------------------


 10 CALLS TO NUMERICAL SOLUTION IN TIME STEP 2 STRESS PERIOD 2
 15 TOTAL ITERATIONS

 SLN_1 INNER ITERATION SUMMARY
 --------------------------------------------------------------------------------------------------------------------------------------
      TOTAL      OUTER      INNER                                                            MAXIMUM                                   
  ITERATION  ITERATION  ITERATION  MAXIMUM CHANGE      MAXIMUM CHANGE MODEL-(CELLID)        RESIDUAL    MAXIMUM RESIDUAL MODEL-(CELLID)
 --------------------------------------------------------------------------------------------------------------------------------------
          1          1          1     -0.22032291                    1_GWF-(4,28,17)       134.12174                     1_GWF-(1,22,7)
          2          1          2 -6.69262347E-02                     1_GWF-(1,21,8)       34.020169                    1_GWF-(1,23,10)
          3          1          3 -2.41750473E-02                     1_GWF-(1,20,9)       19.265145                     1_GWF-(2,19,9)
          4          1          4 -2.31062682E-02                     1_GWF-(1,20,9)       8.4829837                     1_GWF-(1,20,9)
          5          1          5 -8.90377560E-03                     1_GWF-(1,20,9)       4.2493881                     1_GWF-(1,20,9)
          6          2          1  2.27141208E-02                     1_GWF-(1,22,8)       11.407082                    1_GWF-(10,27,8)
          7          2          2 -3.39827023E-03                    1_GWF-(12,27,8)       2.1499429                     1_GWF-(9,27,8)
          8          3          1  7.22214559E-03                     1_GWF-(1,22,8)      -2.6173774                     1_GWF-(1,22,8)
          9          4          1  1.90068605E-03                     1_GWF-(1,22,8)     -0.89344893                     1_GWF-(1,22,8)
         10          5          1  3.35448073E-04                     1_GWF-(1,22,8)      0.44049655                      1_GWF-(8,7,6)
         11          6          1 -1.97119541E-04                   1_GWF-(10,25,10)      0.23383911                      1_GWF-(8,7,6)
         12          7          1 -2.13438078E-04                     1_GWF-(1,12,3)     -0.10814643                    1_GWF-(4,12,11)
         13          8          1 -1.04466156E-04                     1_GWF-(1,12,3)  5.81822109E-02                     1_GWF-(8,10,3)
         14          9          1 -7.14399366E-05                     1_GWF-(1,12,3)  2.90638762E-02                     1_GWF-(8,10,3)
         15         10          1 -3.03758749E-05                     1_GWF-(1,11,3)  1.62426174E-02                     1_GWF-(8,10,3)
 --------------------------------------------------------------------------------------------------------------------------------------


 
    Solving:  Stress period:     2    Time step:     3
 

 SLN_1 OUTER ITERATION SUMMARY
 ----------------------------------------------------------------------------------------------------------
                                OUTER      INNER                    STEP   MAXIMUM CHANGE MODEL-(CELLID) OR
 OUTER ITERATION STEP       ITERATION  ITERATION  MAXIMUM CHANGE SUCCESS             MODEL-PACKAGE-(NUMBER)
 ----------------------------------------------------------------------------------------------------------
 Model                              1          5     -0.25396268                             1_GWF-(1,23,7)
 Model                              2          2 -2.20414272E-02       *                     1_GWF-(1,27,9)
 Package                            2                  490.55861                    1_GWF-SFR_0-(69)-inflow
 Model                              3          1  3.37440495E-03       *                    1_GWF-(4,22,20)
 Package                            3                  130.25516                   1_GWF-SFR_0-(123)-inflow
 Model                              4          1  6.46376599E-04       *                    1_GWF-(4,22,20)
 Package                            4                  28.327523                   1_GWF-SFR_0-(123)-inflow
 Model                              5          1 -4.63001631E-04       *                     1_GWF-(1,19,9)
 Package                            5                  6.5958347                   1_GWF-SFR_0-(123)-inflow
 Model                              6          1 -4.05566155E-04       *                     1_GWF-(1,19,9)
 Package                            6                  2.6511056                   1_GWF-SFR_0-(123)-inflow
 Model                              7          1 -2.39560416E-04       *                     1_GWF-(1,19,9)
 Package                            7                  1.4726804                   1_GWF-SFR_0-(123)-inflow
 Model                              8          1 -1.59607053E-04       *                     1_GWF-(1,19,9)
 Package                            8                 0.68536720                   1_GWF-SFR_0-(123)-inflow
 Model                              9          1 -7.22569853E-05       *                     1_GWF-(1,12,3)
 Package                            9                 0.43932182                   1_GWF-SFR_0-(123)-inflow
 Model                             10          1 -3.60593206E-05       *                     1_GWF-(1,12,3)
 Package                           10                 0.16812901                   1_GWF-SFR_0-(123)-inflow
 Model                             11          1 -1.42271825E-05       *                     1_GWF-(1,12,3)
 Package                           11             7.01798244E-02       *           1_GWF-SFR_0-(123)-inflow
 ----------------------------------------------------------------------------------------------------------


 11 CALLS TO NUMERICAL SOLUTION IN TIME STEP 3 STRESS PERIOD 2
 16 TOTAL ITERATIONS

 SLN_1 INNER ITERATION SUMMARY
 --------------------------------------------------------------------------------------------------------------------------------------
      TOTAL      OUTER      INNER                                                            MAXIMUM                                   
  ITERATION  ITERATION  ITERATION  MAXIMUM CHANGE      MAXIMUM CHANGE MODEL-(CELLID)        RESIDUAL    MAXIMUM RESIDUAL MODEL-(CELLID)
 --------------------------------------------------------------------------------------------------------------------------------------
          1          1          1     -0.20305128                    1_GWF-(4,28,18)       113.01013                     1_GWF-(1,24,6)
          2          1          2 -9.28192140E-02                    1_GWF-(13,24,6)      -32.714236                     1_GWF-(6,3,27)
          3          1          3 -2.52365718E-02                   1_GWF-(10,25,10)       13.699092                    1_GWF-(9,25,10)
          4          1          4 -1.50374586E-02                    1_GWF-(1,22,10)       5.5193622                    1_GWF-(1,21,10)
          5          1          5 -6.31616946E-03                    1_GWF-(1,21,10)       2.4019481                     1_GWF-(1,21,9)
          6          2          1 -1.89929225E-02                     1_GWF-(1,27,9)       9.5268204                     1_GWF-(9,27,9)
          7          2          2 -3.08149902E-03                    1_GWF-(11,27,9)       1.8003050                     1_GWF-(9,27,9)
          8          3          1  3.37440495E-03                    1_GWF-(4,22,20)       1.9641966                   1_GWF-(10,25,10)
          9          4          1  6.46376599E-04                    1_GWF-(4,22,20)       1.0483477                   1_GWF-(10,25,10)
         10          5          1 -4.63001631E-04                     1_GWF-(1,19,9)      0.59192817                    1_GWF-(9,25,10)
         11          6          1 -4.05566155E-04                     1_GWF-(1,19,9)      0.40134493                    1_GWF-(1,26,10)
         12          7          1 -2.39560416E-04                     1_GWF-(1,19,9)      0.13122114                     1_GWF-(3,21,9)
         13          8          1 -1.59607053E-04                     1_GWF-(1,19,9)     -0.12776300                    1_GWF-(8,16,22)
         14          9          1 -7.22569853E-05                     1_GWF-(1,12,3) -4.15690326E-02                    1_GWF-(4,12,11)
         15         10          1 -3.60593206E-05                     1_GWF-(1,12,3)  2.61526578E-02                    1_GWF-(1,26,10)
         16         11          1 -1.42271825E-05                     1_GWF-(1,12,3)  7.87575866E-03                     1_GWF-(1,12,4)
 --------------------------------------------------------------------------------------------------------------------------------------


 
    Solving:  Stress period:     2    Time step:     4
 

 SLN_1 OUTER ITERATION SUMMARY
 ----------------------------------------------------------------------------------------------------------
                                OUTER      INNER                    STEP   MAXIMUM CHANGE MODEL-(CELLID) OR
 OUTER ITERATION STEP       ITERATION  ITERATION  MAXIMUM CHANGE SUCCESS             MODEL-PACKAGE-(NUMBER)
 ----------------------------------------------------------------------------------------------------------
 Model                              1          5     -0.27191490                             1_GWF-(1,23,7)
 Model                              2          3 -6.52088620E-02       *                     1_GWF-(1,28,7)
 Package                            2                  767.23365                    1_GWF-SFR_0-(69)-inflow
 Model                              3          1  2.79305719E-03       *                     1_GWF-(1,22,9)
 Package                            3                  184.82911                   1_GWF-SFR_0-(123)-inflow
 Model                              4          1 -1.01645799E-03       *                     1_GWF-(1,28,7)
 Package                            4                  37.387437                   1_GWF-SFR_0-(123)-inflow
 Model                              5          1 -5.74488953E-04       *                     1_GWF-(1,28,7)
 Package                            5                  8.4877565                   1_GWF-SFR_0-(123)-inflow
 Model                              6          1 -3.61285612E-04       *                     1_GWF-(1,28,7)
 Package                            6                  2.9295163                   1_GWF-SFR_0-(123)-inflow
 Model                              7          1 -2.42839323E-04       *                     1_GWF-(1,28,7)
 Package                            7                  1.2605567                   1_GWF-SFR_0-(123)-inflow
 Model                              8          1 -2.00693214E-04       *                     1_GWF-(1,28,7)
 Package                            8                 0.70122202                   1_GWF-SFR_0-(123)-inflow
 Model                              9          1 -1.62510848E-04       *                     1_GWF-(1,28,7)
 Package                            9                 0.54029537                   1_GWF-SFR_0-(123)-inflow
 Model                             10          1 -8.36940470E-05       *                   1_GWF-(10,25,10)
 Package                           10                 0.42791553                   1_GWF-SFR_0-(123)-inflow
 Model                             11          1 -2.81077922E-05       *                   1_GWF-(10,25,10)
 Package                           11                 0.23419564                   1_GWF-SFR_0-(123)-inflow
 Model                             12          1 -2.44700754E-05       *                   1_GWF-(10,25,10)
 Package                           12             8.34541205E-02       *           1_GWF-SFR_0-(123)-inflow
 ----------------------------------------------------------------------------------------------------------


 12 CALLS TO NUMERICAL SOLUTION IN TIME STEP 4 STRESS PERIOD 2
 18 TOTAL ITERATIONS

 SLN_1 INNER ITERATION SUMMARY
 --------------------------------------------------------------------------------------------------------------------------------------
      TOTAL      OUTER      INNER                                                            MAXIMUM                                   
  ITERATION  ITERATION  ITERATION  MAXIMUM CHANGE      MAXIMUM CHANGE MODEL-(CELLID)        RESIDUAL    MAXIMUM RESIDUAL MODEL-(CELLID)
 --------------------------------------------------------------------------------------------------------------------------------------
          1          1          1     -0.20529242                    1_GWF-(4,24,23)       112.42166                     1_GWF-(1,24,6)
          2          1          2     -0.11957154                    1_GWF-(13,24,6)      -57.101713                     1_GWF-(6,3,27)
          3          1          3 -3.14616314E-02                    1_GWF-(12,25,7)       15.365332                    1_GWF-(10,25,9)
          4          1          4 -1.32420513E-02                    1_GWF-(1,24,10)       6.7987625                    1_GWF-(10,25,9)
          5          1          5 -6.20796771E-03                    1_GWF-(1,24,10)       2.5437810                    1_GWF-(1,22,10)
          6          2          1 -4.93459825E-02                     1_GWF-(1,28,7)       24.944636                     1_GWF-(9,28,7)
          7          2          2 -1.00219161E-02                    1_GWF-(11,28,7)       8.0412216                     1_GWF-(9,28,7)
          8          2          3 -5.94175353E-03                    1_GWF-(12,28,7)       2.2459158                     1_GWF-(3,27,6)
          9          3          1  2.79305719E-03                     1_GWF-(1,22,9)       1.5678764                     1_GWF-(3,27,6)
         10          4          1 -1.01645799E-03                     1_GWF-(1,28,7)       1.0517935                     1_GWF-(3,27,6)
         11          5          1 -5.74488953E-04                     1_GWF-(1,28,7)      0.68381428                     1_GWF-(3,27,6)
         12          6          1 -3.61285612E-04                     1_GWF-(1,28,7)      0.48364541                    1_GWF-(10,25,6)
         13          7          1 -2.42839323E-04                     1_GWF-(1,28,7)      0.33768887                    1_GWF-(10,25,6)
         14          8          1 -2.00693214E-04                     1_GWF-(1,28,7)      0.39812927                     1_GWF-(6,2,18)
         15          9          1 -1.62510848E-04                     1_GWF-(1,28,7)     -0.20691012                     1_GWF-(1,28,7)
         16         10          1 -8.36940470E-05                   1_GWF-(10,25,10) -9.14495053E-02                     1_GWF-(1,28,7)
         17         11          1 -2.81077922E-05                   1_GWF-(10,25,10) -4.16624162E-02                     1_GWF-(6,2,18)
         18         12          1 -2.44700754E-05                   1_GWF-(10,25,10) -1.58683938E-02                     1_GWF-(1,27,3)
 --------------------------------------------------------------------------------------------------------------------------------------


 
    Solving:  Stress period:     2    Time step:     5
 

 SLN_1 OUTER ITERATION SUMMARY
 ----------------------------------------------------------------------------------------------------------
                                OUTER      INNER                    STEP   MAXIMUM CHANGE MODEL-(CELLID) OR
 OUTER ITERATION STEP       ITERATION  ITERATION  MAXIMUM CHANGE SUCCESS             MODEL-PACKAGE-(NUMBER)
 ----------------------------------------------------------------------------------------------------------
 Model                              1          5     -0.27125835                             1_GWF-(1,24,7)
 Model                              2          2 -3.38844839E-02       *                     1_GWF-(1,27,7)
 Package                            2                  1039.6816                    1_GWF-SFR_0-(69)-inflow
 Model                              3          1 -3.41159436E-03       *                    1_GWF-(12,27,7)
 Package                            3                  219.53472                   1_GWF-SFR_0-(123)-inflow
 Model                              4          1 -1.87698803E-03       *                    1_GWF-(12,27,7)
 Package                            4                  52.510837                   1_GWF-SFR_0-(123)-inflow
 Model                              5          1 -1.58026829E-03       *                    1_GWF-(12,27,7)
 Package                            5                  15.454544                   1_GWF-SFR_0-(123)-inflow
 Model                              6          1 -8.21808849E-04       *                    1_GWF-(12,27,7)
 Package                            6                  7.4414609                   1_GWF-SFR_0-(123)-inflow
 Model                              7          1 -6.58828948E-04       *                    1_GWF-(12,27,7)
 Package                            7                  2.2482519                   1_GWF-SFR_0-(123)-inflow
 Model                              8          1 -6.07829186E-04       *                    1_GWF-(12,27,7)
 Package                            8                  1.4505346                   1_GWF-SFR_0-(123)-inflow
 Model                              9          1 -4.78922314E-04       *                    1_GWF-(13,25,7)
 Package                            9                  1.2133817                   1_GWF-SFR_0-(123)-inflow
 Model                             10          1 -9.49942524E-05       *                   1_GWF-(13,25,10)
 Package                           10                 0.79620922                   1_GWF-SFR_0-(123)-inflow
 Model                             11          1 -1.02056059E-04       *                    1_GWF-(12,25,7)
 Package                           11                 0.16031473                   1_GWF-SFR_0-(123)-inflow
 Model                             12          1 -2.45581265E-05       *                   1_GWF-(13,25,10)
 Package                           12                 0.13587651                   1_GWF-SFR_0-(123)-inflow
 Model                             13          1 -2.33273985E-05       *                    1_GWF-(12,25,7)
 Package                           13             3.95592303E-02       *           1_GWF-SFR_0-(123)-inflow
 ----------------------------------------------------------------------------------------------------------


 13 CALLS TO NUMERICAL SOLUTION IN TIME STEP 5 STRESS PERIOD 2
 18 TOTAL ITERATIONS

 SLN_1 INNER ITERATION SUMMARY
 --------------------------------------------------------------------------------------------------------------------------------------
      TOTAL      OUTER      INNER                                                            MAXIMUM                                   
  ITERATION  ITERATION  ITERATION  MAXIMUM CHANGE      MAXIMUM CHANGE MODEL-(CELLID)        RESIDUAL    MAXIMUM RESIDUAL MODEL-(CELLID)
 --------------------------------------------------------------------------------------------------------------------------------------
          1          1          1     -0.19641443                    1_GWF-(4,24,23)       100.32887                     1_GWF-(6,3,27)
          2          1          2     -0.13300419                    1_GWF-(12,24,6)      -83.907843                     1_GWF-(6,3,27)
          3          1          3 -3.41723543E-02                    1_GWF-(13,25,6)      -24.613553                     1_GWF-(6,5,27)
          4          1          4 -1.46731473E-02                    1_GWF-(1,24,10)      -7.3374415                     1_GWF-(6,4,27)
          5          1          5 -6.13440903E-03                    1_GWF-(1,24,10)       2.7653738                    1_GWF-(10,25,9)
          6          2          1 -2.77332527E-02                     1_GWF-(1,27,7)       14.781329                    1_GWF-(10,27,7)
          7          2          2 -6.18359004E-03                    1_GWF-(11,27,7)       6.7047249                    1_GWF-(10,27,7)
          8          3          1 -3.41159436E-03                    1_GWF-(12,27,7)       4.2272269                     1_GWF-(3,27,7)
          9          4          1 -1.87698803E-03                    1_GWF-(12,27,7)       2.4627070                     1_GWF-(3,27,7)
         10          5          1 -1.58026829E-03                    1_GWF-(12,27,7)       1.5495713                    1_GWF-(10,26,6)
         11          6          1 -8.21808849E-04                    1_GWF-(12,27,7)      -1.2789256                    1_GWF-(5,23,18)
         12          7          1 -6.58828948E-04                    1_GWF-(12,27,7)      -1.2703539                    1_GWF-(5,23,18)
         13          8          1 -6.07829186E-04                    1_GWF-(12,27,7)     -0.89265667                    1_GWF-(5,23,18)
         14          9          1 -4.78922314E-04                    1_GWF-(13,25,7)      0.57206033                    1_GWF-(5,23,18)
         15         10          1 -9.49942524E-05                   1_GWF-(13,25,10)     -0.13054841                    1_GWF-(5,23,18)
         16         11          1 -1.02056059E-04                    1_GWF-(12,25,7)     -0.11820373                    1_GWF-(5,23,18)
         17         12          1 -2.45581265E-05                   1_GWF-(13,25,10) -3.56329400E-02                     1_GWF-(1,27,3)
         18         13          1 -2.33273985E-05                    1_GWF-(12,25,7) -4.07887761E-02                    1_GWF-(4,11,12)
 --------------------------------------------------------------------------------------------------------------------------------------


 
    Solving:  Stress period:     2    Time step:     6
 

 SLN_1 OUTER ITERATION SUMMARY
 ----------------------------------------------------------------------------------------------------------
                                OUTER      INNER                    STEP   MAXIMUM CHANGE MODEL-(CELLID) OR
 OUTER ITERATION STEP       ITERATION  ITERATION  MAXIMUM CHANGE SUCCESS             MODEL-PACKAGE-(NUMBER)
 ----------------------------------------------------------------------------------------------------------
 Model                              1          5     -0.24179720                             1_GWF-(1,24,7)
 Model                              2          2 -1.93690620E-02       *                     1_GWF-(4,2,11)
 Package                            2                  1224.0856                    1_GWF-SFR_0-(69)-inflow
 Model                              3          1 -5.43333007E-03       *                     1_GWF-(4,1,11)
 Package                            3                  241.60172                   1_GWF-SFR_0-(123)-inflow
 Model                              4          1 -5.84909409E-04       *                     1_GWF-(4,1,11)
 Package                            4                  56.660422                   1_GWF-SFR_0-(123)-inflow
 Model                              5          1 -6.75049894E-04       *                    1_GWF-(13,27,8)
 Package                            5                  12.722412                   1_GWF-SFR_0-(123)-inflow
 Model                              6          1 -4.54648861E-04       *                    1_GWF-(12,26,8)
 Package                            6                  7.1504045                   1_GWF-SFR_0-(123)-inflow
 Model                              7          1 -3.85275024E-04       *                    1_GWF-(13,26,8)
 Package                            7                  1.9073117                   1_GWF-SFR_0-(123)-inflow
 Model                              8          1 -2.88816893E-04       *                    1_GWF-(12,26,8)
 Package                            8                  1.3291444                   1_GWF-SFR_0-(123)-inflow
 Model                              9          1 -2.94888344E-04       *                    1_GWF-(13,26,7)
 Package                            9                 0.82973785                   1_GWF-SFR_0-(123)-inflow
 Model                             10          1 -3.21465842E-05       *                    1_GWF-(13,25,6)
 Package                           10                 0.60712547                   1_GWF-SFR_0-(123)-inflow
 Model                             11          1 -3.44442924E-05       *                    1_GWF-(13,26,7)
 Package                           11             7.10747478E-02       *           1_GWF-SFR_0-(123)-inflow
 ----------------------------------------------------------------------------------------------------------


 11 CALLS TO NUMERICAL SOLUTION IN TIME STEP 6 STRESS PERIOD 2
 16 TOTAL ITERATIONS

 SLN_1 INNER ITERATION SUMMARY
 --------------------------------------------------------------------------------------------------------------------------------------
      TOTAL      OUTER      INNER                                                            MAXIMUM                                   
  ITERATION  ITERATION  ITERATION  MAXIMUM CHANGE      MAXIMUM CHANGE MODEL-(CELLID)        RESIDUAL    MAXIMUM RESIDUAL MODEL-(CELLID)
 --------------------------------------------------------------------------------------------------------------------------------------
          1          1          1     -0.15635709                    1_GWF-(4,24,23)       83.537399                     1_GWF-(6,3,27)
          2          1          2     -0.12499401                    1_GWF-(13,24,6)      -82.507801                     1_GWF-(6,3,27)
          3          1          3 -3.68070765E-02                    1_GWF-(11,25,6)      -29.148656                     1_GWF-(6,5,27)
          4          1          4 -1.16063877E-02                    1_GWF-(13,25,9)      -9.1887223                     1_GWF-(6,4,27)
          5          1          5 -4.96109275E-03                    1_GWF-(12,25,9)      -2.7142417                     1_GWF-(6,4,27)
          6          2          1 -1.87948727E-02                     1_GWF-(4,2,11)       6.3417317                    1_GWF-(10,27,7)
          7          2          2 -2.87032923E-03                    1_GWF-(10,28,8)       2.0027963                     1_GWF-(6,5,27)
          8          3          1 -5.43333007E-03                     1_GWF-(4,1,11)       1.3522723                     1_GWF-(9,26,8)
          9          4          1 -5.84909409E-04                     1_GWF-(4,1,11)      0.95761460                    1_GWF-(10,26,8)
         10          5          1 -6.75049894E-04                    1_GWF-(13,27,8)      -1.1422022                    1_GWF-(4,11,12)
         11          6          1 -4.54648861E-04                    1_GWF-(12,26,8)     -0.95176731                    1_GWF-(5,16,22)
         12          7          1 -3.85275024E-04                    1_GWF-(13,26,8)     -0.87524784                    1_GWF-(5,16,22)
         13          8          1 -2.88816893E-04                    1_GWF-(12,26,8)     -0.25115767                     1_GWF-(1,27,3)
         14          9          1 -2.94888344E-04                    1_GWF-(13,26,7)     -0.36342487                    1_GWF-(5,16,22)
         15         10          1 -3.21465842E-05                    1_GWF-(13,25,6)  4.28528475E-02                    1_GWF-(5,16,22)
         16         11          1 -3.44442924E-05                    1_GWF-(13,26,7)  4.30287351E-02                    1_GWF-(9,15,18)
 --------------------------------------------------------------------------------------------------------------------------------------


 
    Solving:  Stress period:     2    Time step:     7
 

 SLN_1 OUTER ITERATION SUMMARY
 ----------------------------------------------------------------------------------------------------------
                                OUTER      INNER                    STEP   MAXIMUM CHANGE MODEL-(CELLID) OR
 OUTER ITERATION STEP       ITERATION  ITERATION  MAXIMUM CHANGE SUCCESS             MODEL-PACKAGE-(NUMBER)
 ----------------------------------------------------------------------------------------------------------
 Model                              1          5     -0.18437770                             1_GWF-(1,25,7)
 Model                              2          1 -9.14686829E-03       *                    1_GWF-(4,26,21)
 Package                            2                  1180.9576                    1_GWF-SFR_0-(69)-inflow
 Model                              3          1 -1.92743138E-03       *                    1_GWF-(6,28,17)
 Package                            3                  213.85898                   1_GWF-SFR_0-(123)-inflow
 Model                              4          1 -7.42639425E-04       *                   1_GWF-(13,21,22)
 Package                            4                  50.304395                   1_GWF-SFR_0-(123)-inflow
 Model                              5          1 -5.88511778E-04       *                   1_GWF-(13,21,22)
 Package                            5                  17.573731                   1_GWF-SFR_0-(123)-inflow
 Model                              6          1 -3.94718486E-04       *                    1_GWF-(11,27,5)
 Package                            6                  8.0521051                   1_GWF-SFR_0-(123)-inflow
 Model                              7          1 -3.66211797E-04       *                    1_GWF-(12,26,6)
 Package                            7                  3.9535238                   1_GWF-SFR_0-(123)-inflow
 Model                              8          1 -3.59216268E-04       *                    1_GWF-(12,27,7)
 Package                            8                  2.6147724                   1_GWF-SFR_0-(123)-inflow
 Model                              9          1 -8.08820428E-05       *                    1_GWF-(12,26,7)
 Package                            9                  1.1186687                   1_GWF-SFR_0-(123)-inflow
 Model                             10          1 -4.75033467E-05       *                    1_GWF-(11,25,7)
 Package                           10                 0.14448040                   1_GWF-SFR_0-(123)-inflow
 Model                             11          1 -5.36670374E-05       *                    1_GWF-(12,26,7)
 Package                           11             6.49491085E-02       *           1_GWF-SFR_0-(172)-inflow
 ----------------------------------------------------------------------------------------------------------


 11 CALLS TO NUMERICAL SOLUTION IN TIME STEP 7 STRESS PERIOD 2
 15 TOTAL ITERATIONS

 SLN_1 INNER ITERATION SUMMARY
 --------------------------------------------------------------------------------------------------------------------------------------
      TOTAL      OUTER      INNER                                                            MAXIMUM                                   
  ITERATION  ITERATION  ITERATION  MAXIMUM CHANGE      MAXIMUM CHANGE MODEL-(CELLID)        RESIDUAL    MAXIMUM RESIDUAL MODEL-(CELLID)
 --------------------------------------------------------------------------------------------------------------------------------------
          1          1          1     -0.10120225                    1_GWF-(4,23,23)       55.706873                     1_GWF-(6,3,27)
          2          1          2 -9.92357517E-02                    1_GWF-(12,24,7)      -55.444957                     1_GWF-(6,3,27)
          3          1          3 -3.15115272E-02                    1_GWF-(10,25,7)      -20.838668                     1_GWF-(6,5,27)
          4          1          4 -1.01309030E-02                    1_GWF-(12,25,8)      -8.4101660                     1_GWF-(6,4,27)
          5          1          5 -3.99272896E-03                    1_GWF-(12,25,9)      -2.6889340                     1_GWF-(6,4,27)
          6          2          1 -9.14686829E-03                    1_GWF-(4,26,21)       4.2959866                     1_GWF-(6,7,28)
          7          3          1 -1.92743138E-03                    1_GWF-(6,28,17)       1.8949800                   1_GWF-(10,27,13)
          8          4          1 -7.42639425E-04                   1_GWF-(13,21,22)      0.83194260                     1_GWF-(6,5,27)
          9          5          1 -5.88511778E-04                   1_GWF-(13,21,22)      0.44254846                     1_GWF-(9,28,6)
         10          6          1 -3.94718486E-04                    1_GWF-(11,27,5)      0.33256780                     1_GWF-(3,27,7)
         11          7          1 -3.66211797E-04                    1_GWF-(12,26,6)      0.23022487                     1_GWF-(9,25,7)
         12          8          1 -3.59216268E-04                    1_GWF-(12,27,7)     -0.26563064                     1_GWF-(1,27,3)
         13          9          1 -8.08820428E-05                    1_GWF-(12,26,7)     -0.13573996                     1_GWF-(9,20,3)
         14         10          1 -4.75033467E-05                    1_GWF-(11,25,7)  9.88266247E-02                    1_GWF-(10,20,3)
         15         11          1 -5.36670374E-05                    1_GWF-(12,26,7)      0.11401107                    1_GWF-(10,20,3)
 --------------------------------------------------------------------------------------------------------------------------------------


 
    Solving:  Stress period:     2    Time step:     8
 

 SLN_1 OUTER ITERATION SUMMARY
 ----------------------------------------------------------------------------------------------------------
                                OUTER      INNER                    STEP   MAXIMUM CHANGE MODEL-(CELLID) OR
 OUTER ITERATION STEP       ITERATION  ITERATION  MAXIMUM CHANGE SUCCESS             MODEL-PACKAGE-(NUMBER)
 ----------------------------------------------------------------------------------------------------------
 Model                              1          4     -0.11127030                             1_GWF-(1,25,7)
 Model                              2          1 -5.80132221E-03       *                     1_GWF-(4,4,13)
 Package                            2                  940.54613                    1_GWF-SFR_0-(69)-inflow
 Model                              3          1 -1.28100851E-03       *                     1_GWF-(4,4,13)
 Package                            3                  128.53893                   1_GWF-SFR_0-(123)-inflow
 Model                              4          1 -5.65045412E-04       *                    1_GWF-(11,26,9)
 Package                            4                  40.013560                   1_GWF-SFR_0-(123)-inflow
 Model                              5          1 -5.18739120E-04       *                    1_GWF-(11,26,9)
 Package                            5                  15.307177                   1_GWF-SFR_0-(123)-inflow
 Model                              6          1 -3.84769749E-04       *                    1_GWF-(12,26,9)
 Package                            6                  7.3108515                   1_GWF-SFR_0-(123)-inflow
 Model                              7          1 -3.06413331E-04       *                    1_GWF-(12,26,8)
 Package                            7                  2.7378518                   1_GWF-SFR_0-(123)-inflow
 Model                              8          1 -3.84214734E-04       *                    1_GWF-(12,26,8)
 Package                            8                  1.4398802                   1_GWF-SFR_0-(123)-inflow
 Model                              9          1 -4.12016913E-04       *                    1_GWF-(12,26,7)
 Package                            9                  1.3279486                   1_GWF-SFR_0-(123)-inflow
 Model                             10          1 -1.60228977E-04       *                    1_GWF-(11,27,7)
 Package                           10                  1.0839760                   1_GWF-SFR_0-(123)-inflow
 Model                             11          1 -1.49478037E-04       *                    1_GWF-(12,26,7)
 Package                           11                 0.28503989                   1_GWF-SFR_0-(172)-inflow
 Model                             12          1 -1.46341346E-04       *                    1_GWF-(11,26,7)
 Package                           12                 0.27851974                   1_GWF-SFR_0-(172)-inflow
 Model                             13          1 -2.40386288E-04       *                    1_GWF-(12,26,7)
 Package                           13                 0.25580295                   1_GWF-SFR_0-(172)-inflow
 Model                             14          1 -1.91901042E-05       *                    1_GWF-(11,26,7)
 Package                           14                 0.43212506                   1_GWF-SFR_0-(172)-inflow
 Model                             15          1 -4.41749153E-05       *                    1_GWF-(12,26,7)
 Package                           15             3.49892251E-02       *           1_GWF-SFR_0-(172)-inflow
 ----------------------------------------------------------------------------------------------------------


 15 CALLS TO NUMERICAL SOLUTION IN TIME STEP 8 STRESS PERIOD 2
 18 TOTAL ITERATIONS

 SLN_1 INNER ITERATION SUMMARY
 --------------------------------------------------------------------------------------------------------------------------------------
      TOTAL      OUTER      INNER                                                            MAXIMUM                                   
  ITERATION  ITERATION  ITERATION  MAXIMUM CHANGE      MAXIMUM CHANGE MODEL-(CELLID)        RESIDUAL    MAXIMUM RESIDUAL MODEL-(CELLID)
 --------------------------------------------------------------------------------------------------------------------------------------
          1          1          1 -5.18622055E-02                    1_GWF-(4,23,23)       28.431643                     1_GWF-(6,3,27)
          2          1          2 -6.24784540E-02                    1_GWF-(12,25,7)      -38.214590                     1_GWF-(6,3,27)
          3          1          3 -1.98717430E-02                    1_GWF-(10,25,6)      -17.210795                     1_GWF-(6,5,27)
          4          1          4  8.53862304E-03                   1_GWF-(13,21,20)      -6.6011562                     1_GWF-(6,4,27)
          5          2          1 -5.80132221E-03                     1_GWF-(4,4,13)      -3.0765635                     1_GWF-(6,2,27)
          6          3          1 -1.28100851E-03                     1_GWF-(4,4,13)      -2.1287129                     1_GWF-(6,2,27)
          7          4          1 -5.65045412E-04                    1_GWF-(11,26,9)      -1.3131548                     1_GWF-(6,2,27)
          8          5          1 -5.18739120E-04                    1_GWF-(11,26,9)     -0.72052235                    1_GWF-(8,18,15)
          9          6          1 -3.84769749E-04                    1_GWF-(12,26,9)      0.49999380                    1_GWF-(10,25,8)
         10          7          1 -3.06413331E-04                    1_GWF-(12,26,8)      0.40895019                    1_GWF-(10,25,8)
         11          8          1 -3.84214734E-04                    1_GWF-(12,26,8)     -0.72556519                    1_GWF-(7,18,15)
         12          9          1 -4.12016913E-04                    1_GWF-(12,26,7)     -0.27932806                     1_GWF-(1,27,3)
         13         10          1 -1.60228977E-04                    1_GWF-(11,27,7)      0.16338868                    1_GWF-(10,25,6)
         14         11          1 -1.49478037E-04                    1_GWF-(12,26,7)     -0.27631699                    1_GWF-(8,18,15)
         15         12          1 -1.46341346E-04                    1_GWF-(11,26,7)     -0.21010842                    1_GWF-(8,18,15)
         16         13          1 -2.40386288E-04                    1_GWF-(12,26,7)     -0.18790800                     1_GWF-(1,27,3)
         17         14          1 -1.91901042E-05                    1_GWF-(11,26,7) -3.41226799E-02                    1_GWF-(8,18,15)
         18         15          1 -4.41749153E-05                    1_GWF-(12,26,7)  7.01195325E-02                    1_GWF-(8,18,15)
 --------------------------------------------------------------------------------------------------------------------------------------


 
    Solving:  Stress period:     2    Time step:     9
 

 SLN_1 OUTER ITERATION SUMMARY
 ----------------------------------------------------------------------------------------------------------
                                OUTER      INNER                    STEP   MAXIMUM CHANGE MODEL-(CELLID) OR
 OUTER ITERATION STEP       ITERATION  ITERATION  MAXIMUM CHANGE SUCCESS             MODEL-PACKAGE-(NUMBER)
 ----------------------------------------------------------------------------------------------------------
 Model                              1          3 -4.85356109E-02       *                     1_GWF-(1,25,7)
 Package                            1                 -17607780.                    1_GWF-SFR_0-(35)-inflow
 Model                              2          1  3.65480473E-03       *                   1_GWF-(13,21,21)
 Package                            2                  686.49253                    1_GWF-SFR_0-(69)-inflow
 Model                              3          1  2.04383384E-03       *                   1_GWF-(13,21,21)
 Package                            3                  49.636288                    1_GWF-SFR_0-(89)-inflow
 Model                              4          1  1.14632003E-03       *                   1_GWF-(13,21,20)
 Package                            4                 -32.390302                    1_GWF-SFR_0-(79)-inflow
 Model                              5          1  5.62743367E-04       *                   1_GWF-(13,21,20)
 Package                            5                 -23.116220                    1_GWF-SFR_0-(79)-inflow
 Model                              6          1 -4.54655487E-04       *                    1_GWF-(12,26,8)
 Package                            6                 -13.040090                    1_GWF-SFR_0-(79)-inflow
 Model                              7          1 -6.47678322E-04       *                    1_GWF-(12,26,8)
 Package                            7                 -8.4548409                    1_GWF-SFR_0-(79)-inflow
 Model                              8          1 -2.70310518E-04       *                    1_GWF-(10,26,7)
 Package                            8                 -7.5064167                    1_GWF-SFR_0-(79)-inflow
 Model                              9          1 -2.74155727E-04       *                    1_GWF-(12,26,7)
 Package                            9                -0.97607742                    1_GWF-SFR_0-(79)-inflow
 Model                             10          1 -2.82141425E-04       *                    1_GWF-(12,26,7)
 Package                           10                -0.70081340                    1_GWF-SFR_0-(79)-inflow
 Model                             11          1 -4.90183876E-04       *                    1_GWF-(11,26,7)
 Package                           11                -0.46207770                    1_GWF-SFR_0-(79)-inflow
 Model                             12          1 -3.58774005E-04       *                    1_GWF-(11,25,7)
 Package                           12                 0.92198272                   1_GWF-SFR_0-(172)-inflow
 Model                             13          1 -1.04306630E-04       *                    1_GWF-(10,26,7)
 Package                           13                 0.93051030                   1_GWF-SFR_0-(172)-inflow
 Model                             14          1 -4.40414862E-04       *                    1_GWF-(12,26,7)
 Package                           14                 0.27532427                   1_GWF-SFR_0-(172)-inflow
 Model                             15          1 -1.55300959E-05       *                    1_GWF-(10,26,7)
 Package                           15                  1.1949834                   1_GWF-SFR_0-(172)-inflow
 Model                             16          1 -2.30088488E-05       *                    1_GWF-(12,26,7)
 Package                           16             5.01290699E-02       *           1_GWF-SFR_0-(172)-inflow
 ----------------------------------------------------------------------------------------------------------


 16 CALLS TO NUMERICAL SOLUTION IN TIME STEP 9 STRESS PERIOD 2
 18 TOTAL ITERATIONS

 SLN_1 INNER ITERATION SUMMARY
 --------------------------------------------------------------------------------------------------------------------------------------
      TOTAL      OUTER      INNER                                                            MAXIMUM                                   
  ITERATION  ITERATION  ITERATION  MAXIMUM CHANGE      MAXIMUM CHANGE MODEL-(CELLID)        RESIDUAL    MAXIMUM RESIDUAL MODEL-(CELLID)
 --------------------------------------------------------------------------------------------------------------------------------------
          1          1          1 -2.04458679E-02                    1_GWF-(4,23,23)       10.898247                     1_GWF-(6,3,27)
          2          1          2 -3.01934729E-02                    1_GWF-(11,25,7)      -16.177064                     1_GWF-(6,3,27)
          3          1          3 -9.47364114E-03                    1_GWF-(10,25,6)      -8.3874162                     1_GWF-(6,5,27)
          4          2          1  3.65480473E-03                   1_GWF-(13,21,21)      -3.7048920                     1_GWF-(6,2,27)
          5          3          1  2.04383384E-03                   1_GWF-(13,21,21)      -2.5520897                     1_GWF-(6,3,27)
          6          4          1  1.14632003E-03                   1_GWF-(13,21,20)      -1.6220164                     1_GWF-(6,4,27)
          7          5          1  5.62743367E-04                   1_GWF-(13,21,20)      -1.1210115                     1_GWF-(6,4,27)
          8          6          1 -4.54655487E-04                    1_GWF-(12,26,8)      0.69715308                    1_GWF-(10,25,8)
          9          7          1 -6.47678322E-04                    1_GWF-(12,26,8)      -1.4880478                    1_GWF-(10,8,15)
         10          8          1 -2.70310518E-04                    1_GWF-(10,26,7)      0.43815607                     1_GWF-(9,25,8)
         11          9          1 -2.74155727E-04                    1_GWF-(12,26,7)      0.38682307                     1_GWF-(9,25,8)
         12         10          1 -2.82141425E-04                    1_GWF-(12,26,7)     -0.40719485                    1_GWF-(10,8,15)
         13         11          1 -4.90183876E-04                    1_GWF-(11,26,7)     -0.54245933                    1_GWF-(10,8,15)
         14         12          1 -3.58774005E-04                    1_GWF-(11,25,7)      0.49741236                    1_GWF-(10,8,15)
         15         13          1 -1.04306630E-04                    1_GWF-(10,26,7)     -0.10844303                     1_GWF-(1,27,3)
         16         14          1 -4.40414862E-04                    1_GWF-(12,26,7)      0.31050976                     1_GWF-(2,21,3)
         17         15          1 -1.55300959E-05                    1_GWF-(10,26,7)  2.12447700E-02                    1_GWF-(10,25,6)
         18         16          1 -2.30088488E-05                    1_GWF-(12,26,7) -5.47600802E-02                    1_GWF-(11,8,15)
 --------------------------------------------------------------------------------------------------------------------------------------


 
    Solving:  Stress period:     2    Time step:    10
 

 SLN_1 OUTER ITERATION SUMMARY
 ----------------------------------------------------------------------------------------------------------
                                OUTER      INNER                    STEP   MAXIMUM CHANGE MODEL-(CELLID) OR
 OUTER ITERATION STEP       ITERATION  ITERATION  MAXIMUM CHANGE SUCCESS             MODEL-PACKAGE-(NUMBER)
[...]
          6          2          1  3.33454271E-02                     1_GWF-(1,22,9)      -9.4335115                     1_GWF-(1,22,9)
          7          2          2  2.93321670E-03                    1_GWF-(1,22,10)      -2.3976647                    1_GWF-(1,22,10)
          8          3          1  1.03543249E-02                     1_GWF-(1,22,9)      -3.4356106                    1_GWF-(9,26,10)
          9          3          2  1.37550589E-03                    1_GWF-(1,23,10)     -0.99357316                    1_GWF-(1,22,10)
         10          4          1  2.24316071E-03                     1_GWF-(1,22,9)      -1.1284026                    1_GWF-(9,26,10)
         11          5          1  4.98428569E-04                    1_GWF-(1,22,10)     -0.51490118                    1_GWF-(9,26,10)
         12          6          1 -3.53053144E-04                     1_GWF-(1,11,3)      0.33326777                    1_GWF-(4,25,20)
         13          7          1 -2.07132505E-04                     1_GWF-(1,11,3)      0.19352452                     1_GWF-(8,10,3)
         14          8          1 -1.54820215E-04                     1_GWF-(1,11,3)      0.12599849                     1_GWF-(8,10,3)
 --------------------------------------------------------------------------------------------------------------------------------------


 
    Solving:  Stress period:    19    Time step:     3
 

 SLN_1 OUTER ITERATION SUMMARY
 ----------------------------------------------------------------------------------------------------------
                                OUTER      INNER                    STEP   MAXIMUM CHANGE MODEL-(CELLID) OR
 OUTER ITERATION STEP       ITERATION  ITERATION  MAXIMUM CHANGE SUCCESS             MODEL-PACKAGE-(NUMBER)
 ----------------------------------------------------------------------------------------------------------
 Model                              1          5     -0.18922705                             1_GWF-(1,18,6)
 Model                              2          2  2.08620272E-02       *                     1_GWF-(1,17,6)
 Package                            2                  191.98169                   1_GWF-SFR_0-(123)-inflow
 Model                              3          1  5.97124681E-03       *                     1_GWF-(1,17,6)
 Package                            3                  34.826215                   1_GWF-SFR_0-(123)-inflow
 Model                              4          1  1.52837512E-03       *                     1_GWF-(1,17,6)
 Package                            4                  5.1260698                   1_GWF-SFR_0-(123)-inflow
 Model                              5          1 -4.22100447E-04       *                     1_GWF-(1,11,3)
 Package                            5                  1.1651946                   1_GWF-SFR_0-(123)-inflow
 Model                              6          1 -4.41211312E-04       *                     1_GWF-(1,11,3)
 Package                            6                 0.42713708                   1_GWF-SFR_0-(123)-inflow
 Model                              7          1 -1.90000412E-04       *                     1_GWF-(1,11,3)
 Package                            7                 0.33600936                    1_GWF-SFR_0-(89)-inflow
 Model                              8          1 -1.42900008E-04       *                     1_GWF-(1,11,3)
 Package                            8                 0.12113045                    1_GWF-SFR_0-(89)-inflow
 Model                              9          1 -1.34696268E-04       *                     1_GWF-(1,11,3)
 Package                            9             9.14791683E-02       *            1_GWF-SFR_0-(89)-inflow
 ----------------------------------------------------------------------------------------------------------


 9 CALLS TO NUMERICAL SOLUTION IN TIME STEP 3 STRESS PERIOD 19
 14 TOTAL ITERATIONS

 SLN_1 INNER ITERATION SUMMARY
 --------------------------------------------------------------------------------------------------------------------------------------
      TOTAL      OUTER      INNER                                                            MAXIMUM                                   
  ITERATION  ITERATION  ITERATION  MAXIMUM CHANGE      MAXIMUM CHANGE MODEL-(CELLID)        RESIDUAL    MAXIMUM RESIDUAL MODEL-(CELLID)
 --------------------------------------------------------------------------------------------------------------------------------------
          1          1          1     -0.15446754                     1_GWF-(1,18,6)       171.94424                     1_GWF-(5,4,32)
          2          1          2 -4.42819507E-02                     1_GWF-(1,17,7)       38.746672                     1_GWF-(5,3,33)
          3          1          3 -1.63101472E-02                     1_GWF-(1,18,9)       8.9187569                     1_GWF-(2,19,9)
          4          1          4 -1.00009514E-02                     1_GWF-(1,18,9)      -6.3941771                     1_GWF-(5,3,32)
          5          1          5 -3.49750633E-03                     1_GWF-(1,12,3)       2.2216004                     1_GWF-(8,10,3)
          6          2          1  1.94932003E-02                     1_GWF-(1,17,6)      -6.5509636                     1_GWF-(1,17,6)
          7          2          2  1.37245742E-03                     1_GWF-(3,17,6)       1.2158264                     1_GWF-(8,10,3)
          8          3          1  5.97124681E-03                     1_GWF-(1,17,6)      -2.0562615                     1_GWF-(1,17,6)
          9          4          1  1.52837512E-03                     1_GWF-(1,17,6)     -0.73300807                     1_GWF-(1,17,6)
         10          5          1 -4.22100447E-04                     1_GWF-(1,11,3)      0.44952015                     1_GWF-(8,10,3)
         11          6          1 -4.41211312E-04                     1_GWF-(1,11,3)      0.26423496                     1_GWF-(8,10,3)
         12          7          1 -1.90000412E-04                     1_GWF-(1,11,3)      0.17868367                     1_GWF-(8,10,3)
         13          8          1 -1.42900008E-04                     1_GWF-(1,11,3)      0.11607683                     1_GWF-(8,10,3)
         14          9          1 -1.34696268E-04                     1_GWF-(1,11,3)  9.85339752E-02                    1_GWF-(5,26,18)
 --------------------------------------------------------------------------------------------------------------------------------------


 
    Solving:  Stress period:    19    Time step:     4
 

 SLN_1 OUTER ITERATION SUMMARY
 ----------------------------------------------------------------------------------------------------------
                                OUTER      INNER                    STEP   MAXIMUM CHANGE MODEL-(CELLID) OR
 OUTER ITERATION STEP       ITERATION  ITERATION  MAXIMUM CHANGE SUCCESS             MODEL-PACKAGE-(NUMBER)
 ----------------------------------------------------------------------------------------------------------
 Model                              1          4     -0.16219972                             1_GWF-(1,18,6)
 Model                              2          2  1.51130231E-02       *                    1_GWF-(4,18,24)
 Package                            2                  289.16738                   1_GWF-SFR_0-(123)-inflow
 Model                              3          1  4.52118944E-03       *                    1_GWF-(4,18,24)
 Package                            3                  51.489585                   1_GWF-SFR_0-(123)-inflow
 Model                              4          1  8.79848192E-04       *                    1_GWF-(4,18,24)
 Package                            4                  8.8135303                   1_GWF-SFR_0-(123)-inflow
 Model                              5          1 -5.09529915E-04       *                     1_GWF-(1,12,3)
 Package                            5                  1.7211849                   1_GWF-SFR_0-(123)-inflow
 Model                              6          1 -3.53680182E-04       *                     1_GWF-(1,12,3)
 Package                            6                 0.90231232                   1_GWF-SFR_0-(123)-inflow
 Model                              7          1 -2.50367817E-04       *                     1_GWF-(1,12,3)
 Package                            7                 0.52026132                   1_GWF-SFR_0-(123)-inflow
 Model                              8          1 -1.93618034E-04       *                     1_GWF-(1,12,3)
 Package                            8                 0.34814321                   1_GWF-SFR_0-(123)-inflow
 Model                              9          1 -1.56593502E-04       *                     1_GWF-(1,11,3)
 Package                            9                 0.25271872                   1_GWF-SFR_0-(123)-inflow
 Model                             10          1 -1.04306138E-04       *                     1_GWF-(1,11,3)
 Package                           10                 0.19322307                   1_GWF-SFR_0-(123)-inflow
 Model                             11          1 -7.12980885E-05       *                     1_GWF-(1,11,3)
 Package                           11                 0.12102451                   1_GWF-SFR_0-(123)-inflow
 Model                             12          1 -4.68658011E-05       *                     1_GWF-(1,11,3)
 Package                           12             7.82398252E-02       *           1_GWF-SFR_0-(123)-inflow
 ----------------------------------------------------------------------------------------------------------


 12 CALLS TO NUMERICAL SOLUTION IN TIME STEP 4 STRESS PERIOD 19
 16 TOTAL ITERATIONS

 SLN_1 INNER ITERATION SUMMARY
 --------------------------------------------------------------------------------------------------------------------------------------
      TOTAL      OUTER      INNER                                                            MAXIMUM                                   
  ITERATION  ITERATION  ITERATION  MAXIMUM CHANGE      MAXIMUM CHANGE MODEL-(CELLID)        RESIDUAL    MAXIMUM RESIDUAL MODEL-(CELLID)
 --------------------------------------------------------------------------------------------------------------------------------------
          1          1          1     -0.14496908                     1_GWF-(4,1,21)       140.25976                     1_GWF-(5,3,33)
          2          1          2 -4.59390233E-02                     1_GWF-(1,18,8)       38.225145                     1_GWF-(5,3,33)
          3          1          3 -1.74229737E-02                     1_GWF-(1,18,9)      -9.6403314                     1_GWF-(5,3,32)
          4          1          4 -8.85788062E-03                     1_GWF-(1,19,9)      -5.5137809                     1_GWF-(5,3,32)
          5          2          1  1.49403547E-02                    1_GWF-(4,18,24)      -3.1611398                     1_GWF-(5,3,32)
          6          2          2 -1.73962629E-03                     1_GWF-(1,12,3)       1.1957214                     1_GWF-(8,10,3)
          7          3          1  4.52118944E-03                    1_GWF-(4,18,24)      -1.2859057                     1_GWF-(5,3,32)
          8          4          1  8.79848192E-04                    1_GWF-(4,18,24)     -0.67666280                     1_GWF-(5,3,32)
          9          5          1 -5.09529915E-04                     1_GWF-(1,12,3)      0.42883979                     1_GWF-(8,10,3)
         10          6          1 -3.53680182E-04                     1_GWF-(1,12,3)      0.30431624                     1_GWF-(8,10,3)
         11          7          1 -2.50367817E-04                     1_GWF-(1,12,3)      0.21907279                     1_GWF-(8,10,3)
         12          8          1 -1.93618034E-04                     1_GWF-(1,12,3)      0.15174288                     1_GWF-(8,10,3)
         13          9          1 -1.56593502E-04                     1_GWF-(1,11,3)     -0.11748431                    1_GWF-(8,18,15)
         14         10          1 -1.04306138E-04                     1_GWF-(1,11,3)     -0.10228697                    1_GWF-(8,18,15)
         15         11          1 -7.12980885E-05                     1_GWF-(1,11,3) -4.94358252E-02                    1_GWF-(8,21,15)
         16         12          1 -4.68658011E-05                     1_GWF-(1,11,3) -4.03555843E-02                    1_GWF-(8,21,15)
 --------------------------------------------------------------------------------------------------------------------------------------


 
    Solving:  Stress period:    19    Time step:     5
 

 SLN_1 OUTER ITERATION SUMMARY
 ----------------------------------------------------------------------------------------------------------
                                OUTER      INNER                    STEP   MAXIMUM CHANGE MODEL-(CELLID) OR
 OUTER ITERATION STEP       ITERATION  ITERATION  MAXIMUM CHANGE SUCCESS             MODEL-PACKAGE-(NUMBER)
 ----------------------------------------------------------------------------------------------------------
 Model                              1          4     -0.17662435                             1_GWF-(1,23,8)
 Model                              2          2  1.27115496E-02       *                    1_GWF-(4,16,22)
 Package                            2                  480.55888                    1_GWF-SFR_0-(69)-inflow
 Model                              3          1  3.80510286E-03       *                    1_GWF-(4,16,22)
 Package                            3                  79.895372                   1_GWF-SFR_0-(123)-inflow
 Model                              4          1  7.15795107E-04       *                    1_GWF-(4,16,22)
 Package                            4                  13.446400                   1_GWF-SFR_0-(123)-inflow
 Model                              5          1 -4.41089907E-04       *                     1_GWF-(1,12,3)
 Package                            5                  2.2097178                   1_GWF-SFR_0-(123)-inflow
 Model                              6          1 -2.29130024E-04       *                     1_GWF-(1,12,3)
 Package                            6                  1.3867724                   1_GWF-SFR_0-(123)-inflow
 Model                              7          1 -1.62229990E-04       *                     1_GWF-(1,12,3)
 Package                            7                 0.54985622                   1_GWF-SFR_0-(123)-inflow
 Model                              8          1 -1.23720701E-04       *                     1_GWF-(1,12,3)
 Package                            8                 0.37611752                   1_GWF-SFR_0-(123)-inflow
 Model                              9          1 -9.59770376E-05       *                     1_GWF-(1,12,3)
 Package                            9                 0.27009342                   1_GWF-SFR_0-(123)-inflow
 Model                             10          1 -8.26943235E-05       *                     1_GWF-(1,12,3)
 Package                           10                 0.19975029                   1_GWF-SFR_0-(123)-inflow
 Model                             11          1 -7.28692901E-05       *                     1_GWF-(1,12,3)
 Package                           11                 0.16426012                   1_GWF-SFR_0-(123)-inflow
 Model                             12          1 -5.13069712E-05       *                     1_GWF-(1,12,3)
 Package                           12                 0.13889113                   1_GWF-SFR_0-(123)-inflow
 Model                             13          1 -1.27441072E-05       *                     1_GWF-(1,12,3)
 Package                           13             8.84002782E-02       *           1_GWF-SFR_0-(123)-inflow
 ----------------------------------------------------------------------------------------------------------


 13 CALLS TO NUMERICAL SOLUTION IN TIME STEP 5 STRESS PERIOD 19
 17 TOTAL ITERATIONS

 SLN_1 INNER ITERATION SUMMARY
 --------------------------------------------------------------------------------------------------------------------------------------
      TOTAL      OUTER      INNER                                                            MAXIMUM                                   
  ITERATION  ITERATION  ITERATION  MAXIMUM CHANGE      MAXIMUM CHANGE MODEL-(CELLID)        RESIDUAL    MAXIMUM RESIDUAL MODEL-(CELLID)
 --------------------------------------------------------------------------------------------------------------------------------------
          1          1          1     -0.15768275                     1_GWF-(4,1,22)       107.17901                     1_GWF-(6,4,27)
          2          1          2 -6.33453641E-02                    1_GWF-(13,24,7)      -48.390521                     1_GWF-(6,4,27)
          3          1          3 -1.97267065E-02                     1_GWF-(1,19,9)      -10.371743                     1_GWF-(6,5,27)
          4          1          4 -8.92755552E-03                    1_GWF-(1,24,10)      -4.1194760                     1_GWF-(5,3,32)
          5          2          1  1.26136216E-02                    1_GWF-(4,16,22)       3.6224126                     1_GWF-(6,7,28)
          6          2          2 -1.65350798E-03                    1_GWF-(1,24,10)       1.0777380                    1_GWF-(3,24,10)
          7          3          1  3.80510286E-03                    1_GWF-(4,16,22)       1.0840462                   1_GWF-(13,15,24)
          8          4          1  7.15795107E-04                    1_GWF-(4,16,22)      0.46202763                    1_GWF-(10,25,9)
          9          5          1 -4.41089907E-04                     1_GWF-(1,12,3)      0.69228912                    1_GWF-(4,16,22)
         10          6          1 -2.29130024E-04                     1_GWF-(1,12,3)      0.20797158                     1_GWF-(1,12,4)
         11          7          1 -1.62229990E-04                     1_GWF-(1,12,3)      0.15726067                     1_GWF-(8,10,3)
         12          8          1 -1.23720701E-04                     1_GWF-(1,12,3)      0.11682226                     1_GWF-(8,10,3)
         13          9          1 -9.59770376E-05                     1_GWF-(1,12,3)  8.44766701E-02                     1_GWF-(8,10,3)
         14         10          1 -8.26943235E-05                     1_GWF-(1,12,3) -9.63339447E-02                    1_GWF-(9,20,21)
         15         11          1 -7.28692901E-05                     1_GWF-(1,12,3) -6.09443159E-02                    1_GWF-(9,20,21)
         16         12          1 -5.13069712E-05                     1_GWF-(1,12,3)  2.32401451E-02                     1_GWF-(6,8,12)
         17         13          1 -1.27441072E-05                     1_GWF-(1,12,3)  9.64314874E-03                     1_GWF-(7,8,12)
 --------------------------------------------------------------------------------------------------------------------------------------



 MEMORY MANAGER TOTAL STORAGE BY DATA TYPE, IN MEGABYTES
 -------------------------------
                    ALLOCATED   
 DATA TYPE           MEMORY     
 -------------------------------
 Character        1.65440000E-02
 Logical          4.80000000E-05
 Integer          3.7973040     
 Real             6.8598560     
 -------------------------------
 Total            10.673752     
 Virtual          0.0000000     
 -------------------------------


 
 Run end date and time (yyyy/mm/dd hh:mm:ss): 2025/11/19 17:15:26
 Elapsed run time:  8.825 Seconds

WARNING REPORT:

  1. OPTIONS BLOCK VARIABLE 'UNIT_CONVERSION' IN FILE 'shellmound.sfr' WAS
     DEPRECATED IN VERSION 6.4.2. SETTING UNIT_CONVERSION DIRECTLY.
  2. SFR Package SFR_0 has 2 reach(es) with zero connections.
 Normal termination of simulation.
