                                   MODFLOW 6
                U.S. GEOLOGICAL SURVEY MODULAR HYDROLOGIC MODEL
                            VERSION 6.5.0 05/23/2024

   MODFLOW 6 compiled Jun 21 2024 02:57:23 with Intel(R) Fortran Intel(R) 64
   Compiler Classic for applications running on Intel(R) 64, Version 2021.7.0
                             Build 20220726_000000

This software has been approved for release by the U.S. Geological 
Survey (USGS). Although the software has been subjected to rigorous 
review, the USGS reserves the right to update the software as needed 
pursuant to further analysis and review. No warranty, expressed or 
implied, is made by the USGS or the U.S. Government as to the 
functionality of the software and related material nor shall the 
fact of release constitute any such warranty. Furthermore, the 
software is released on condition that neither the USGS nor the U.S. 
Government shall be held liable for any damages resulting from its 
authorized or unauthorized use. Also refer to the USGS Water 
Resources Software User Rights Notice for complete use, copyright, 
and distribution information.


As a work of the United States Government, this USGS product is 
in the public domain within the United States. You can copy, 
modify, distribute, and perform the work, even for commercial 
purposes, all without asking permission. Additionally, USGS 
waives copyright and related rights in the work worldwide 
through CC0 1.0 Universal Public Domain Dedication 
(https://creativecommons.org/publicdomain/zero/1.0/).

The following GNU Lesser General Public License (LGPL) libraries
are used in this USGS product:

    SPARSKIT version 2.0
      ilut, luson, and qsplit 
      (https://www-users.cse.umn.edu/~saad/software/SPARSKIT/)

    RCM - Reverse Cuthill McKee Ordering
      (https://people.math.sc.edu/Burkardt/f_src/rcm/rcm.html)

    BLAS - Basic Linear Algebra Subprograms Level 1
      (https://people.math.sc.edu/Burkardt/f_src/blas1_d/blas1_d.html)

    SPARSEKIT - Sparse Matrix Utility Package
      amux, dperm, dvperm, rperm, and cperm
      (https://people.sc.fsu.edu/~jburkardt/f77_src/sparsekit/sparsekit.html)

The following BSD-3 License libraries are used in this USGS product:

    Modern Fortran DAG Library
      Copyright (c) 2018, Jacob Williams
      All rights reserved.
      (https://github.com/jacobwilliams/daglib)

MODFLOW 6 compiler options: /O2 /heap-arrays:0 /fpe:0 /traceback /nologo /fpp
/c /module:win64\mod_mf6\ /object:win64\obj_mf6\

System command used to initiate simulation:
C:\Users\gross.DESKTOP-AIRQM2M\anaconda3\envs\gmdsitut\Scripts\mf6.exe

MODFLOW was compiled using uniform precision.

Real Variables
  KIND: 8
  TINY (smallest non-zero value):    2.225074-308
  HUGE (largest value):    1.797693+308
  PRECISION: 15
  SIZE IN BITS: 64

Integer Variables
  KIND: 4
  HUGE (largest value): 2147483647
  SIZE IN BITS: 32

Long Integer Variables
  KIND: 8
  HUGE (largest value): 9223372036854775807
  SIZE IN BITS: 64

Logical Variables
  KIND: 4
  SIZE IN BITS: 32
 

 OPENED mfsim.nam
 FILE TYPE:NAM6               UNIT 1001   STATUS:OLD                 
 FORMAT:FORMATTED              ACCESS:SEQUENTIAL          
 ACTION:READ                

 # File generated by Flopy version 3.8.2 on 11/14/2025 at 10:25:57.

 OPENED e11.tdis
 FILE TYPE:TDIS6              UNIT 1002   STATUS:OLD                 
 FORMAT:FORMATTED              ACCESS:SEQUENTIAL          
 ACTION:READ                

 # File generated by Flopy version 3.8.2 on 11/14/2025 at 10:25:57.

 OPENED e11.nam
 FILE TYPE:GWF6               UNIT 1003   STATUS:OLD                 
 FORMAT:FORMATTED              ACCESS:SEQUENTIAL          
 ACTION:READ                

 # File generated by Flopy version 3.8.2 on 11/14/2025 at 10:25:57.

 OPENED e11.dis
 FILE TYPE:DIS6               UNIT 1004   STATUS:OLD                 
 FORMAT:FORMATTED              ACCESS:SEQUENTIAL          
 ACTION:READ                

 # File generated by Flopy version 3.8.2 on 11/14/2025 at 10:25:57.

 OPENED e11.npf
 FILE TYPE:NPF6               UNIT 1005   STATUS:OLD                 
 FORMAT:FORMATTED              ACCESS:SEQUENTIAL          
 ACTION:READ                

 # File generated by Flopy version 3.8.2 on 11/14/2025 at 10:25:57.

 OPENED e11.sto
 FILE TYPE:STO6      UNIT 1006   STATUS:OLD                 
 FORMAT:FORMATTED              ACCESS:SEQUENTIAL          
 ACTION:READ                


 OPENED e11.ic
 FILE TYPE:IC6                UNIT 1007   STATUS:OLD                 
 FORMAT:FORMATTED              ACCESS:SEQUENTIAL          
 ACTION:READ                

 # File generated by Flopy version 3.8.2 on 11/14/2025 at 10:25:57.

 OPENED e11.oc
 FILE TYPE:OC6       UNIT 1008   STATUS:OLD                 
 FORMAT:FORMATTED              ACCESS:SEQUENTIAL          
 ACTION:READ                


 OPENED e11.wel
 FILE TYPE:WEL6               UNIT 1009   STATUS:OLD                 
 FORMAT:FORMATTED              ACCESS:SEQUENTIAL          
 ACTION:READ                

 # File generated by Flopy version 3.8.2 on 11/14/2025 at 10:25:57.

 OPENED e11.ghb
 FILE TYPE:GHB6               UNIT 1010   STATUS:OLD                 
 FORMAT:FORMATTED              ACCESS:SEQUENTIAL          
 ACTION:READ                

 # File generated by Flopy version 3.8.2 on 11/14/2025 at 10:25:57.

 OPENED e11.rcha
 FILE TYPE:RCH6               UNIT 1012   STATUS:OLD                 
 FORMAT:FORMATTED              ACCESS:SEQUENTIAL          
 ACTION:READ                

 # File generated by Flopy version 3.8.2 on 11/14/2025 at 10:25:57.

 OPENED e11.evta
 FILE TYPE:EVT6               UNIT 1014   STATUS:OLD                 
 FORMAT:FORMATTED              ACCESS:SEQUENTIAL          
 ACTION:READ                

 # File generated by Flopy version 3.8.2 on 11/14/2025 at 10:25:57.

 OPENED e11.sfr
 FILE TYPE:SFR6      UNIT 1015   STATUS:OLD                 
 FORMAT:FORMATTED              ACCESS:SEQUENTIAL          
 ACTION:READ                


 READING SIMULATION OPTIONS
    MAXIMUM NUMBER OF ERRORS THAT WILL BE STORED IS 1000
 END OF SIMULATION OPTIONS

 READING SIMULATION TIMING

 TDIS -- TEMPORAL DISCRETIZATION PACKAGE,
 VERSION 1 : 11/13/2014 - INPUT READ FROM MEMPATH: __INPUT__/SIM/TDIS                                
 PROCESSING TDIS OPTIONS
    SIMULATION TIME UNIT IS SECONDS
 END OF TDIS OPTIONS
 PROCESSING TDIS DIMENSIONS
    3 STRESS PERIOD(S) IN SIMULATION
 END OF TDIS DIMENSIONS

 PERLEN is zero for stress period 1. PERLEN must not be zero for transient periods.
 PROCESSING TDIS PERIODDATA


 STRESS PERIOD     LENGTH       TIME STEPS     MULTIPLIER FOR DELT
 ----------------------------------------------------------------------------
        1         0.000000          1                    1.000
        2        1.5778800E+09     50                    1.100
        3        1.5778800E+09     50                    1.100
 END OF TDIS PERIODDATA
 END OF SIMULATION TIMING

 READING SIMULATION MODELS
    GWF6 model 1 will be created
 END OF SIMULATION MODELS

 READING SIMULATION EXCHANGES
 END OF SIMULATION EXCHANGES

 READING SOLUTIONGROUP

 Creating solution: SLN_1           

 OPENED e11.ims
 FILE TYPE:IMS   UNIT 1017   STATUS:OLD                 
 FORMAT:FORMATTED              ACCESS:SEQUENTIAL          
 ACTION:READ                

 END OF SOLUTIONGROUP

PROCESSING MODEL CONNECTIONS

 IMS -- ITERATIVE MODEL SOLUTION PACKAGE, VERSION 6, 4/28/2017
         INPUT READ FROM UNIT 1017
 # File generated by Flopy version 3.8.2 on 11/14/2025 at 10:25:57.

 PROCESSING IMS OPTIONS
 END OF IMS OPTIONS

 PROCESSING IMS NONLINEAR
 END OF IMS NONLINEAR DATA
 ***UNDER-RELAXATION WILL NOT BE USED***
 

 PROCESSING LINEAR DATA
 END OF LINEAR DATA
 ***IMS LINEAR SOLVER WILL BE USED***

 IMSLINEAR -- UNSTRUCTURED LINEAR SOLUTION PACKAGE, VERSION 8, 04/28/2017
 An asymmetric matrix will be solved

 OUTER ITERATION CONVERGENCE CRITERION    (DVCLOSE) =    0.100000E-05
 MAXIMUM NUMBER OF OUTER ITERATIONS        (MXITER) = 100
 SOLVER PRINTOUT INDEX                     (IPRIMS) = 1
 NONLINEAR ITERATION METHOD            (NONLINMETH) = 0
 LINEAR SOLUTION METHOD                   (LINMETH) = 1

       SOLUTION BY THE BICONJUGATE-GRADIENT STABILIZED METHOD
 ------------------------------------------------------------------
 MAXIMUM OF 100 CALLS OF SOLUTION ROUTINE
 MAXIMUM OF 50 INTERNAL ITERATIONS PER CALL TO SOLUTION ROUTINE
 LINEAR ACCELERATION METHOD            = BCGS      
 MATRIX PRECONDITIONING TYPE           = INCOMPLETE LU       
 MATRIX SCALING APPROACH               = NO SCALING          
 MATRIX REORDERING APPROACH            = ORIGINAL ORDERING        
 NUMBER OF ORTHOGONALIZATIONS          = 0
 HEAD CHANGE CRITERION FOR CLOSURE     =    0.10000E-05
 RESIDUAL CHANGE CRITERION FOR CLOSURE =    0.10000E-05
 RESIDUAL CONVERGENCE OPTION           = 1
 RESIDUAL CONVERGENCE NORM             = INFINITY NORM S 
 RELAXATION FACTOR                     =    0.00000E+00



 
    Solving:  Stress period:     1    Time step:     1
 
1
 STRESS PERIOD NO. 1, LENGTH =   0.000000    
 ------------------------------------------
 NUMBER OF TIME STEPS = 1
 MULTIPLIER FOR DELT =     1.000
 INITIAL TIME STEP SIZE =   0.000000    



 PSEUDO-TRANSIENT CONTINUATION WILL BE APPLIED TO MODEL 1 ("E11") DURING THIS TIME STEP

 SLN_1 OUTER ITERATION SUMMARY
 ----------------------------------------------------------------------------------------------------------
                                OUTER      INNER                    STEP   MAXIMUM CHANGE MODEL-(CELLID) OR
 OUTER ITERATION STEP       ITERATION  ITERATION  MAXIMUM CHANGE SUCCESS             MODEL-PACKAGE-(NUMBER)
 ----------------------------------------------------------------------------------------------------------
 Model                              1         12       90.929208                              1_GWF-(1,1,1)
 Model                              2          8      -56.339111                              1_GWF-(1,2,1)
 Model                              3          9       42.166144                              1_GWF-(1,2,1)
 Model                              4          8      -39.302111                              1_GWF-(1,2,1)
 Model                              5          8       25.756547                              1_GWF-(1,2,1)
 Model                              6          7      -10.552554                              1_GWF-(1,1,1)
 Model                              7          8      -3.0009294                              1_GWF-(1,2,1)
 Model                              8          8     -0.46116222                              1_GWF-(1,7,6)
 Model                              9          7 -3.66305265E-02                              1_GWF-(1,6,6)
 Model                             10          6 -1.64314271E-03                             1_GWF-(1,11,7)
 Model                             11          5 -1.08739390E-04                             1_GWF-(1,12,7)
 Model                             12          2 -8.24441042E-06                             1_GWF-(1,13,1)
 Model                             13          1 -5.50341269E-07       *                     1_GWF-(1,13,1)
 Package                           13             1.03416710E-06                     1_GWF-SFR_0-(27)-stage
 Model                             14          1 -1.39099939E-07       *                      1_GWF-(1,7,1)
 Package                           14             6.73751401E-08       *             1_GWF-SFR_0-(27)-stage
 ----------------------------------------------------------------------------------------------------------


 14 CALLS TO NUMERICAL SOLUTION IN TIME STEP 1 STRESS PERIOD 1
 90 TOTAL ITERATIONS
 
    Solving:  Stress period:     2    Time step:     1
 
1
 STRESS PERIOD NO. 2, LENGTH =  0.1577880E+10
 ------------------------------------------
 NUMBER OF TIME STEPS = 50
 MULTIPLIER FOR DELT =     1.100
 INITIAL TIME STEP SIZE =   1355674.    

 SLN_1 OUTER ITERATION SUMMARY
 ----------------------------------------------------------------------------------------------------------
                                OUTER      INNER                    STEP   MAXIMUM CHANGE MODEL-(CELLID) OR
 OUTER ITERATION STEP       ITERATION  ITERATION  MAXIMUM CHANGE SUCCESS             MODEL-PACKAGE-(NUMBER)
 ----------------------------------------------------------------------------------------------------------
 Model                              1          3      -2.3983068                              1_GWF-(1,8,4)
 Model                              2          3 -4.08636524E-02                              1_GWF-(1,6,5)
 Model                              3          2 -7.37230632E-05                             1_GWF-(1,13,2)
 Model                              4          2 -2.40630459E-06                             1_GWF-(1,13,1)
 Model                              5          1 -5.42387397E-08       *                     1_GWF-(1,13,1)
 Package                            5             2.91579787E-04                    1_GWF-SFR_0-(36)-inflow
 Model                              6          1 -3.00133252E-10       *                     1_GWF-(1,13,1)
 Package                            6             4.43358530E-06                    1_GWF-SFR_0-(36)-inflow
 Model                              7          1 -1.09480425E-10       *                     1_GWF-(1,13,1)
 Package                            7             1.95549011E-08       *            1_GWF-SFR_0-(36)-inflow
 ----------------------------------------------------------------------------------------------------------


 7 CALLS TO NUMERICAL SOLUTION IN TIME STEP 1 STRESS PERIOD 2
 13 TOTAL ITERATIONS
 
    Solving:  Stress period:     2    Time step:     2
 

 SLN_1 OUTER ITERATION SUMMARY
 ----------------------------------------------------------------------------------------------------------
                                OUTER      INNER                    STEP   MAXIMUM CHANGE MODEL-(CELLID) OR
 OUTER ITERATION STEP       ITERATION  ITERATION  MAXIMUM CHANGE SUCCESS             MODEL-PACKAGE-(NUMBER)
 ----------------------------------------------------------------------------------------------------------
 Model                              1          4      -2.4114535                              1_GWF-(1,8,4)
 Model                              2          3 -1.05210520E-02                             1_GWF-(1,10,5)
 Model                              3          2 -1.46468029E-04                             1_GWF-(1,13,2)
 Model                              4          2 -4.68212897E-06                             1_GWF-(1,13,1)
 Model                              5          1 -1.00235525E-07       *                     1_GWF-(1,13,1)
 Package                            5             5.61040955E-04                    1_GWF-SFR_0-(36)-inflow
 Model                              6          1 -7.75457920E-10       *                     1_GWF-(1,13,1)
 Package                            6             8.03911262E-06                    1_GWF-SFR_0-(36)-inflow
 Model                              7          1 -1.55523594E-10       *                     1_GWF-(1,13,1)
 Package                            7             4.90223025E-08       *            1_GWF-SFR_0-(36)-inflow
 ----------------------------------------------------------------------------------------------------------


 7 CALLS TO NUMERICAL SOLUTION IN TIME STEP 2 STRESS PERIOD 2
 14 TOTAL ITERATIONS
 
    Solving:  Stress period:     2    Time step:     3
 

 SLN_1 OUTER ITERATION SUMMARY
 ----------------------------------------------------------------------------------------------------------
                                OUTER      INNER                    STEP   MAXIMUM CHANGE MODEL-(CELLID) OR
 OUTER ITERATION STEP       ITERATION  ITERATION  MAXIMUM CHANGE SUCCESS             MODEL-PACKAGE-(NUMBER)
 ----------------------------------------------------------------------------------------------------------
 Model                              1          4      -2.3529565                              1_GWF-(1,8,4)
 Model                              2          3 -3.56815712E-02                              1_GWF-(1,9,6)
 Model                              3          2 -2.05316586E-04                             1_GWF-(1,13,2)
 Model                              4          2 -7.24273457E-06                             1_GWF-(1,13,1)
 Model                              5          1 -1.73686090E-07       *                     1_GWF-(1,13,1)
 Package                            5             1.01149680E-03                    1_GWF-SFR_0-(36)-inflow
 Model                              6          1 -2.15675300E-09       *                     1_GWF-(1,13,1)
 Package                            6             1.64557276E-05                    1_GWF-SFR_0-(36)-inflow
 Model                              7          1 -1.45632839E-10       *                     1_GWF-(1,13,1)
 Package                            7             1.60428554E-07       *            1_GWF-SFR_0-(36)-inflow
 ----------------------------------------------------------------------------------------------------------


 7 CALLS TO NUMERICAL SOLUTION IN TIME STEP 3 STRESS PERIOD 2
 14 TOTAL ITERATIONS
 
    Solving:  Stress period:     2    Time step:     4
 

 SLN_1 OUTER ITERATION SUMMARY
 ----------------------------------------------------------------------------------------------------------
                                OUTER      INNER                    STEP   MAXIMUM CHANGE MODEL-(CELLID) OR
 OUTER ITERATION STEP       ITERATION  ITERATION  MAXIMUM CHANGE SUCCESS             MODEL-PACKAGE-(NUMBER)
 ----------------------------------------------------------------------------------------------------------
 Model                              1          4      -2.2720814                              1_GWF-(1,8,4)
 Model                              2          3 -2.03989673E-02                              1_GWF-(1,7,6)
 Model                              3          2 -2.62985872E-04                             1_GWF-(1,13,2)
 Model                              4          2 -1.04904644E-05                             1_GWF-(1,13,1)
 Model                              5          1 -2.92303298E-07       *                     1_GWF-(1,13,1)
 Package                            5             1.77337387E-03                    1_GWF-SFR_0-(36)-inflow
 Model                              6          1 -5.12306997E-09       *                     1_GWF-(1,13,1)
 Package                            6             3.42544269E-05                    1_GWF-SFR_0-(36)-inflow
 Model                              7          1 -8.04902811E-11       *                     1_GWF-(1,13,1)
 Package                            7             4.64997886E-07       *            1_GWF-SFR_0-(36)-inflow
 ----------------------------------------------------------------------------------------------------------


 7 CALLS TO NUMERICAL SOLUTION IN TIME STEP 4 STRESS PERIOD 2
 14 TOTAL ITERATIONS
 
    Solving:  Stress period:     2    Time step:     5
 

 SLN_1 OUTER ITERATION SUMMARY
 ----------------------------------------------------------------------------------------------------------
                                OUTER      INNER                    STEP   MAXIMUM CHANGE MODEL-(CELLID) OR
 OUTER ITERATION STEP       ITERATION  ITERATION  MAXIMUM CHANGE SUCCESS             MODEL-PACKAGE-(NUMBER)
 ----------------------------------------------------------------------------------------------------------
 Model                              1          4      -2.1807310                              1_GWF-(1,8,4)
 Model                              2          3     -0.17505145                             1_GWF-(1,12,7)
 Model                              3          3 -2.83628530E-03                             1_GWF-(1,11,7)
 Model                              4          2 -5.76916711E-05                             1_GWF-(1,11,7)
 Model                              5          2 -1.02572926E-06                             1_GWF-(1,11,7)
 Model                              6          1 -1.75687092E-08       *                     1_GWF-(1,11,7)
 Package                            6             3.81996886E-05                    1_GWF-SFR_0-(36)-inflow
 Model                              7          1 -9.73159331E-11       *                     1_GWF-(1,11,7)
 Package                            7             4.65303283E-07       *            1_GWF-SFR_0-(36)-inflow
 ----------------------------------------------------------------------------------------------------------


 7 CALLS TO NUMERICAL SOLUTION IN TIME STEP 5 STRESS PERIOD 2
 16 TOTAL ITERATIONS
 
    Solving:  Stress period:     2    Time step:     6
 

 SLN_1 OUTER ITERATION SUMMARY
 ----------------------------------------------------------------------------------------------------------
                                OUTER      INNER                    STEP   MAXIMUM CHANGE MODEL-(CELLID) OR
 OUTER ITERATION STEP       ITERATION  ITERATION  MAXIMUM CHANGE SUCCESS             MODEL-PACKAGE-(NUMBER)
 ----------------------------------------------------------------------------------------------------------
 Model                              1          4      -2.0921830                              1_GWF-(1,8,4)
 Model                              2          3     -0.20844983                             1_GWF-(1,11,7)
 Model                              3          2 -1.12885065E-03                             1_GWF-(1,11,7)
 Model                              4          2 -4.16457021E-06                             1_GWF-(1,13,1)
 Model                              5          1 -9.49270316E-08       *                     1_GWF-(1,13,1)
 Package                            5             6.36249092E-04                    1_GWF-SFR_0-(36)-inflow
 Model                              6          1 -6.38351594E-10       *                     1_GWF-(1,13,1)
 Package                            6             9.46225258E-06                    1_GWF-SFR_0-(36)-inflow
 Model                              7          1 -1.73940862E-10       *                     1_GWF-(1,13,1)
 Package                            7             5.17622202E-08       *            1_GWF-SFR_0-(36)-inflow
 ----------------------------------------------------------------------------------------------------------


 7 CALLS TO NUMERICAL SOLUTION IN TIME STEP 6 STRESS PERIOD 2
 14 TOTAL ITERATIONS
 
    Solving:  Stress period:     2    Time step:     7
 

 SLN_1 OUTER ITERATION SUMMARY
 ----------------------------------------------------------------------------------------------------------
                                OUTER      INNER                    STEP   MAXIMUM CHANGE MODEL-(CELLID) OR
 OUTER ITERATION STEP       ITERATION  ITERATION  MAXIMUM CHANGE SUCCESS             MODEL-PACKAGE-(NUMBER)
 ----------------------------------------------------------------------------------------------------------
 Model                              1          4      -2.0126755                              1_GWF-(1,8,4)
 Model                              2          3     -0.12268432                             1_GWF-(1,11,7)
 Model                              3          3 -1.32643116E-03                             1_GWF-(1,10,7)
 Model                              4          2 -6.16230886E-06                             1_GWF-(1,10,7)
 Model                              5          1 -7.21975084E-08       *                     1_GWF-(1,13,1)
 Package                            5             5.10438502E-04                    1_GWF-SFR_0-(36)-inflow
 Model                              6          1 -3.04908099E-10       *                     1_GWF-(1,13,1)
 Package                            6             6.80617001E-06                    1_GWF-SFR_0-(36)-inflow
 Model                              7          1 -1.28693500E-10       *                     1_GWF-(1,13,1)
 Package                            7             2.45323696E-08       *            1_GWF-SFR_0-(36)-inflow
 ----------------------------------------------------------------------------------------------------------


 7 CALLS TO NUMERICAL SOLUTION IN TIME STEP 7 STRESS PERIOD 2
 15 TOTAL ITERATIONS
 
    Solving:  Stress period:     2    Time step:     8
 

 SLN_1 OUTER ITERATION SUMMARY
 ----------------------------------------------------------------------------------------------------------
                                OUTER      INNER                    STEP   MAXIMUM CHANGE MODEL-(CELLID) OR
 OUTER ITERATION STEP       ITERATION  ITERATION  MAXIMUM CHANGE SUCCESS             MODEL-PACKAGE-(NUMBER)
 ----------------------------------------------------------------------------------------------------------
 Model                              1          4      -1.9449259                              1_GWF-(1,8,4)
 Model                              2          3     -0.19693072                             1_GWF-(1,10,7)
 Model                              3          3 -2.34377984E-03                             1_GWF-(1,10,7)
 Model                              4          2 -1.33002868E-05                             1_GWF-(1,10,7)
 Model                              5          1 -5.62163223E-08       *                     1_GWF-(1,13,1)
 Package                            5             4.19430619E-04                    1_GWF-SFR_0-(36)-inflow
 Model                              6          1 -3.96539690E-10       *                     1_GWF-(1,11,6)
 Package                            6             5.80229586E-06                    1_GWF-SFR_0-(36)-inflow
 Model                              7          1 -1.59161573E-10       *                     1_GWF-(1,11,6)
 Package                            7             2.80549444E-08       *            1_GWF-SFR_0-(36)-inflow
 ----------------------------------------------------------------------------------------------------------


 7 CALLS TO NUMERICAL SOLUTION IN TIME STEP 8 STRESS PERIOD 2
 15 TOTAL ITERATIONS
 
    Solving:  Stress period:     2    Time step:     9
 

 SLN_1 OUTER ITERATION SUMMARY
 ----------------------------------------------------------------------------------------------------------
                                OUTER      INNER                    STEP   MAXIMUM CHANGE MODEL-(CELLID) OR
 OUTER ITERATION STEP       ITERATION  ITERATION  MAXIMUM CHANGE SUCCESS             MODEL-PACKAGE-(NUMBER)
 ----------------------------------------------------------------------------------------------------------
 Model                              1          4      -1.8914029                              1_GWF-(1,8,4)
 Model                              2          4     -0.18344467                             1_GWF-(1,10,7)
 Model                              3          3 -1.76039332E-03                             1_GWF-(1,10,7)
 Model                              4          2 -4.28009264E-06                             1_GWF-(1,13,1)
 Model                              5          1 -7.75827402E-08       *                     1_GWF-(1,13,1)
 Package                            5             6.12086320E-04                    1_GWF-SFR_0-(36)-inflow
 Model                              6          1 -2.92629920E-10       *                     1_GWF-(1,13,1)
 Package                            6             8.00317925E-06                    1_GWF-SFR_0-(36)-inflow
 Model                              7          1 -1.34718903E-10       *                     1_GWF-(1,13,1)
 Package                            7             2.81582491E-08       *            1_GWF-SFR_0-(36)-inflow
 ----------------------------------------------------------------------------------------------------------


 7 CALLS TO NUMERICAL SOLUTION IN TIME STEP 9 STRESS PERIOD 2
 16 TOTAL ITERATIONS
 
    Solving:  Stress period:     2    Time step:    10
 

 SLN_1 OUTER ITERATION SUMMARY
 ----------------------------------------------------------------------------------------------------------
                                OUTER      INNER                    STEP   MAXIMUM CHANGE MODEL-(CELLID) OR
 OUTER ITERATION STEP       ITERATION  ITERATION  MAXIMUM CHANGE SUCCESS             MODEL-PACKAGE-(NUMBER)
 ----------------------------------------------------------------------------------------------------------
 Model                              1          4      -1.8538080                              1_GWF-(1,8,4)
 Model                              2          4     -0.10301577                              1_GWF-(1,9,6)
 Model                              3          3 -9.72163991E-04                              1_GWF-(1,9,6)
 Model                              4          2 -3.80154654E-06                             1_GWF-(1,13,1)
 Model                              5          1 -5.61487923E-08       *                     1_GWF-(1,13,1)
 Package                            5             4.71116669E-04                    1_GWF-SFR_0-(36)-inflow
 Model                              6          1 -9.77706804E-11       *                     1_GWF-(1,13,1)
 Package                            6             5.03865152E-06                    1_GWF-SFR_0-(36)-inflow
 Model                              7          1 -6.60520527E-11       *                     1_GWF-(1,13,1)
 Package                            7             8.84000117E-09       *            1_GWF-SFR_0-(36)-inflow
 ----------------------------------------------------------------------------------------------------------


 7 CALLS TO NUMERICAL SOLUTION IN TIME STEP 10 STRESS PERIOD 2
 16 TOTAL ITERATIONS
 
    Solving:  Stress period:     2    Time step:    11
 

 SLN_1 OUTER ITERATION SUMMARY
 ----------------------------------------------------------------------------------------------------------
                                OUTER      INNER                    STEP   MAXIMUM CHANGE MODEL-(CELLID) OR
 OUTER ITERATION STEP       ITERATION  ITERATION  MAXIMUM CHANGE SUCCESS             MODEL-PACKAGE-(NUMBER)
 ----------------------------------------------------------------------------------------------------------
 Model                              1          4      -1.8352026                              1_GWF-(1,8,4)
 Model                              2          4     -0.14686944                              1_GWF-(1,9,6)
 Model                              3          3 -1.84441830E-03                              1_GWF-(1,9,6)
 Model                              4          2 -8.92345065E-06                              1_GWF-(1,9,6)
 Model                              5          1 -6.42862688E-08       *                     1_GWF-(1,13,1)
 Package                            5             5.70312950E-04                    1_GWF-SFR_0-(36)-inflow
 Model                              6          1 -3.13661985E-10       *                     1_GWF-(1,10,5)
 Package                            6             6.39097576E-06                    1_GWF-SFR_0-(36)-inflow
 Model                              7          1 -1.47565515E-10       *                     1_GWF-(1,10,5)
 Package                            7             2.29566714E-08       *            1_GWF-SFR_0-(36)-inflow
 ----------------------------------------------------------------------------------------------------------


 7 CALLS TO NUMERICAL SOLUTION IN TIME STEP 11 STRESS PERIOD 2
 16 TOTAL ITERATIONS
 
    Solving:  Stress period:     2    Time step:    12
 

 SLN_1 OUTER ITERATION SUMMARY
 ----------------------------------------------------------------------------------------------------------
                                OUTER      INNER                    STEP   MAXIMUM CHANGE MODEL-(CELLID) OR
 OUTER ITERATION STEP       ITERATION  ITERATION  MAXIMUM CHANGE SUCCESS             MODEL-PACKAGE-(NUMBER)
 ----------------------------------------------------------------------------------------------------------
 Model                              1          4      -1.8334793                              1_GWF-(1,8,4)
 Model                              2          4     -0.17050687                              1_GWF-(1,9,6)
 Model                              3          3 -2.15928193E-03                              1_GWF-(1,9,6)
 Model                              4          2 -1.13286812E-05                              1_GWF-(1,9,6)
 Model                              5          1 -8.54759037E-08       *                     1_GWF-(1,13,1)
 Package                            5             8.04932460E-04                    1_GWF-SFR_0-(36)-inflow
 Model                              6          1 -6.05382411E-10       *                     1_GWF-(1,10,5)
 Package                            6             9.65362779E-06                    1_GWF-SFR_0-(36)-inflow
 Model                              7          1 -2.12480700E-10       *                     1_GWF-(1,10,5)
 Package                            7             4.73532879E-08       *            1_GWF-SFR_0-(36)-inflow
 ----------------------------------------------------------------------------------------------------------


 7 CALLS TO NUMERICAL SOLUTION IN TIME STEP 12 STRESS PERIOD 2
 16 TOTAL ITERATIONS
 
    Solving:  Stress period:     2    Time step:    13
 

 SLN_1 OUTER ITERATION SUMMARY
 ----------------------------------------------------------------------------------------------------------
                                OUTER      INNER                    STEP   MAXIMUM CHANGE MODEL-(CELLID) OR
 OUTER ITERATION STEP       ITERATION  ITERATION  MAXIMUM CHANGE SUCCESS             MODEL-PACKAGE-(NUMBER)
 ----------------------------------------------------------------------------------------------------------
 Model                              1          4      -1.8456624                              1_GWF-(1,8,4)
 Model                              2          4     -0.13299297                              1_GWF-(1,8,6)
 Model                              3          3 -5.23087793E-03                              1_GWF-(1,8,6)
 Model                              4          3 -1.56982392E-04                              1_GWF-(1,8,6)
 Model                              5          2 -1.67188091E-06                              1_GWF-(1,8,6)
 Model                              6          1 -2.26827979E-08       *                      1_GWF-(1,8,6)
 Package                            6             1.49468563E-05                    1_GWF-SFR_0-(36)-inflow
 Model                              7          1 -3.21961124E-10       *                      1_GWF-(1,7,7)
 Package                            7             2.11111566E-07       *            1_GWF-SFR_0-(36)-inflow
 ----------------------------------------------------------------------------------------------------------


 7 CALLS TO NUMERICAL SOLUTION IN TIME STEP 13 STRESS PERIOD 2
 18 TOTAL ITERATIONS
 
    Solving:  Stress period:     2    Time step:    14
 

 SLN_1 OUTER ITERATION SUMMARY
 ----------------------------------------------------------------------------------------------------------
                                OUTER      INNER                    STEP   MAXIMUM CHANGE MODEL-(CELLID) OR
 OUTER ITERATION STEP       ITERATION  ITERATION  MAXIMUM CHANGE SUCCESS             MODEL-PACKAGE-(NUMBER)
 ----------------------------------------------------------------------------------------------------------
 Model                              1          4      -1.8831707                              1_GWF-(1,8,3)
 Model                              2          4     -0.10417544                              1_GWF-(1,6,8)
 Model                              3          4 -1.59648159E-02                              1_GWF-(1,8,6)
 Model                              4          3 -2.59828421E-04                              1_GWF-(1,8,6)
 Model                              5          2 -3.83606039E-06                              1_GWF-(1,8,6)
 Model                              6          1 -5.82087978E-08       *                      1_GWF-(1,8,6)
 Package                            6             2.58100565E-05                    1_GWF-SFR_0-(22)-inflow
 Model                              7          1 -7.41692929E-10       *                      1_GWF-(1,7,7)
 Package                            7             4.39197531E-07       *            1_GWF-SFR_0-(36)-inflow
 ----------------------------------------------------------------------------------------------------------


 7 CALLS TO NUMERICAL SOLUTION IN TIME STEP 14 STRESS PERIOD 2
 19 TOTAL ITERATIONS
 
    Solving:  Stress period:     2    Time step:    15
 

 SLN_1 OUTER ITERATION SUMMARY
 ----------------------------------------------------------------------------------------------------------
                                OUTER      INNER                    STEP   MAXIMUM CHANGE MODEL-(CELLID) OR
 OUTER ITERATION STEP       ITERATION  ITERATION  MAXIMUM CHANGE SUCCESS             MODEL-PACKAGE-(NUMBER)
 ----------------------------------------------------------------------------------------------------------
 Model                              1          4      -1.9307591                              1_GWF-(1,8,3)
 Model                              2          4     -0.16256171                              1_GWF-(1,6,8)
 Model                              3          3 -1.86828049E-03                              1_GWF-(1,6,8)
 Model                              4          2 -1.81764551E-05                              1_GWF-(1,6,8)
 Model                              5          1 -1.83200768E-07       *                     1_GWF-(1,13,1)
 Package                            5             2.08958076E-03                    1_GWF-SFR_0-(36)-inflow
 Model                              6          1 -2.12526174E-09       *                      1_GWF-(1,6,8)
 Package                            6             2.80179724E-05                    1_GWF-SFR_0-(36)-inflow
 Model                              7          1 -3.87444743E-10       *                      1_GWF-(1,6,8)
 Package                            7             1.89391389E-07       *            1_GWF-SFR_0-(36)-inflow
 ----------------------------------------------------------------------------------------------------------


 7 CALLS TO NUMERICAL SOLUTION IN TIME STEP 15 STRESS PERIOD 2
 16 TOTAL ITERATIONS
 
    Solving:  Stress period:     2    Time step:    16
 

 SLN_1 OUTER ITERATION SUMMARY
 ----------------------------------------------------------------------------------------------------------
                                OUTER      INNER                    STEP   MAXIMUM CHANGE MODEL-(CELLID) OR
 OUTER ITERATION STEP       ITERATION  ITERATION  MAXIMUM CHANGE SUCCESS             MODEL-PACKAGE-(NUMBER)
 ----------------------------------------------------------------------------------------------------------
 Model                              1          4      -1.9811311                              1_GWF-(1,8,3)
 Model                              2          4     -0.16752677                              1_GWF-(1,5,8)
 Model                              3          3 -6.61377579E-03                              1_GWF-(1,5,8)
 Model                              4          3 -2.49136292E-04                              1_GWF-(1,5,8)
 Model                              5          2 -9.39412189E-06                              1_GWF-(1,5,8)
 Model                              6          1 -3.52613824E-07       *                      1_GWF-(1,5,8)
 Package                            6             9.82319507E-05                    1_GWF-SFR_0-(14)-inflow
 Model                              7          1 -1.40239536E-08       *                      1_GWF-(1,5,8)
 Package                            7             3.69316573E-06                    1_GWF-SFR_0-(14)-inflow
 Model                              8          1 -6.60975275E-10       *                      1_GWF-(1,5,8)
 Package                            8             1.65256187E-07       *            1_GWF-SFR_0-(14)-inflow
 ----------------------------------------------------------------------------------------------------------


 8 CALLS TO NUMERICAL SOLUTION IN TIME STEP 16 STRESS PERIOD 2
 19 TOTAL ITERATIONS
 
    Solving:  Stress period:     2    Time step:    17
 

 SLN_1 OUTER ITERATION SUMMARY
 ----------------------------------------------------------------------------------------------------------
                                OUTER      INNER                    STEP   MAXIMUM CHANGE MODEL-(CELLID) OR
 OUTER ITERATION STEP       ITERATION  ITERATION  MAXIMUM CHANGE SUCCESS             MODEL-PACKAGE-(NUMBER)
 ----------------------------------------------------------------------------------------------------------
 Model                              1          5      -2.0290218                              1_GWF-(1,8,3)
 Model                              2          4     -0.18127529                              1_GWF-(1,3,6)
 Model                              3          4 -1.14186735E-02                              1_GWF-(1,5,8)
 Model                              4          3 -4.47436699E-04                              1_GWF-(1,5,8)
 Model                              5          2 -1.75890366E-05                              1_GWF-(1,5,8)
 Model                              6          1 -6.87825150E-07       *                      1_GWF-(1,5,8)
 Package                            6             2.01643567E-04                    1_GWF-SFR_0-(14)-inflow
 Model                              7          1 -3.14682893E-08       *                      1_GWF-(1,5,8)
 Package                            7             7.86490119E-06                    1_GWF-SFR_0-(14)-inflow
 Model                              8          1 -9.19953891E-10       *                      1_GWF-(1,5,8)
 Package                            8             3.86111610E-07       *            1_GWF-SFR_0-(14)-inflow
 ----------------------------------------------------------------------------------------------------------


 8 CALLS TO NUMERICAL SOLUTION IN TIME STEP 17 STRESS PERIOD 2
 21 TOTAL ITERATIONS
 
    Solving:  Stress period:     2    Time step:    18
 

 SLN_1 OUTER ITERATION SUMMARY
 ----------------------------------------------------------------------------------------------------------
                                OUTER      INNER                    STEP   MAXIMUM CHANGE MODEL-(CELLID) OR
 OUTER ITERATION STEP       ITERATION  ITERATION  MAXIMUM CHANGE SUCCESS             MODEL-PACKAGE-(NUMBER)
 ----------------------------------------------------------------------------------------------------------
 Model                              1          5      -2.0780722                              1_GWF-(1,8,3)
 Model                              2          4     -0.17098191                              1_GWF-(1,5,8)
 Model                              3          4 -7.47759942E-03                              1_GWF-(1,5,8)
 Model                              4          3 -3.16929024E-04                              1_GWF-(1,5,8)
 Model                              5          2 -1.34442173E-05                              1_GWF-(1,5,8)
 Model                              6          1 -5.66972631E-07       *                      1_GWF-(1,5,8)
 Package                            6             1.74975805E-04                    1_GWF-SFR_0-(14)-inflow
 Model                              7          1 -2.80992936E-08       *                      1_GWF-(1,5,8)
 Package                            7             7.35963225E-06                    1_GWF-SFR_0-(14)-inflow
 Model                              8          1 -9.60881152E-10       *                      1_GWF-(1,5,8)
 Package                            8             3.94098422E-07       *            1_GWF-SFR_0-(14)-inflow
 ----------------------------------------------------------------------------------------------------------


 8 CALLS TO NUMERICAL SOLUTION IN TIME STEP 18 STRESS PERIOD 2
 21 TOTAL ITERATIONS
 
    Solving:  Stress period:     2    Time step:    19
 

 SLN_1 OUTER ITERATION SUMMARY
 ----------------------------------------------------------------------------------------------------------
                                OUTER      INNER                    STEP   MAXIMUM CHANGE MODEL-(CELLID) OR
 OUTER ITERATION STEP       ITERATION  ITERATION  MAXIMUM CHANGE SUCCESS             MODEL-PACKAGE-(NUMBER)
 ----------------------------------------------------------------------------------------------------------
 Model                              1          5      -2.1289964                              1_GWF-(1,8,3)
 Model                              2          5     -0.20834575                              1_GWF-(1,5,8)
 Model                              3          4 -9.75435666E-03                              1_GWF-(1,5,8)
 Model                              4          3 -4.45128750E-04                              1_GWF-(1,5,8)
 Model                              5          2 -2.03336642E-05                              1_GWF-(1,5,8)
 Model                              6          1 -9.22729896E-07       *                      1_GWF-(1,5,8)
 Package                            6             3.00040039E-04                    1_GWF-SFR_0-(14)-inflow
 Model                              7          1 -5.13639407E-08       *                      1_GWF-(1,5,8)
 Package                            7             1.35621455E-05                    1_GWF-SFR_0-(14)-inflow
 Model                              8          1 -1.78829396E-09       *                      1_GWF-(1,5,8)
 Package                            8             8.28934045E-07       *            1_GWF-SFR_0-(14)-inflow
 ----------------------------------------------------------------------------------------------------------


 8 CALLS TO NUMERICAL SOLUTION IN TIME STEP 19 STRESS PERIOD 2
 22 TOTAL ITERATIONS
 
    Solving:  Stress period:     2    Time step:    20
 

 SLN_1 OUTER ITERATION SUMMARY
 ----------------------------------------------------------------------------------------------------------
                                OUTER      INNER                    STEP   MAXIMUM CHANGE MODEL-(CELLID) OR
 OUTER ITERATION STEP       ITERATION  ITERATION  MAXIMUM CHANGE SUCCESS             MODEL-PACKAGE-(NUMBER)
 ----------------------------------------------------------------------------------------------------------
 Model                              1          5      -2.2007452                              1_GWF-(1,8,2)
 Model                              2          5     -0.24773855                              1_GWF-(1,5,8)
 Model                              3          4 -1.24847133E-02                              1_GWF-(1,5,8)
 Model                              4          3 -6.11546017E-04                              1_GWF-(1,5,8)
 Model                              5          2 -3.00153456E-05                              1_GWF-(1,5,8)
 Model                              6          2 -1.48187337E-06                              1_GWF-(1,5,8)
 Model                              7          1 -7.20608568E-08       *                      1_GWF-(1,5,8)
 Package                            7             2.48407145E-05                    1_GWF-SFR_0-(14)-inflow
 Model                              8          1 -2.59251465E-09       *                      1_GWF-(1,5,8)
 Package                            8             1.19534195E-06                    1_GWF-SFR_0-(14)-inflow
 Model                              9          1 -7.55562723E-10       *                      1_GWF-(1,5,8)
 Package                            9             6.48554272E-08       *            1_GWF-SFR_0-(14)-inflow
 ----------------------------------------------------------------------------------------------------------


 9 CALLS TO NUMERICAL SOLUTION IN TIME STEP 20 STRESS PERIOD 2
 24 TOTAL ITERATIONS
 
    Solving:  Stress period:     2    Time step:    21
 

 SLN_1 OUTER ITERATION SUMMARY
 ----------------------------------------------------------------------------------------------------------
                                OUTER      INNER                    STEP   MAXIMUM CHANGE MODEL-(CELLID) OR
 OUTER ITERATION STEP       ITERATION  ITERATION  MAXIMUM CHANGE SUCCESS             MODEL-PACKAGE-(NUMBER)
 ----------------------------------------------------------------------------------------------------------
 Model                              1          5      -2.2909223                              1_GWF-(1,8,2)
 Model                              2          5     -0.58015377                              1_GWF-(1,4,8)
 Model                              3          4 -1.62788118E-02                              1_GWF-(1,4,8)
 Model                              4          2 -3.95367461E-04                              1_GWF-(1,4,8)
 Model                              5          2 -1.00831601E-05                              1_GWF-(1,4,8)
 Model                              6          1 -2.59717126E-07       *                      1_GWF-(1,4,8)
 Package                            6             1.09292118E-04                    1_GWF-SFR_0-(36)-inflow
 Model                              7          1 -3.30942385E-09       *                      1_GWF-(1,4,8)
 Package                            7             1.28378493E-06                    1_GWF-SFR_0-(36)-inflow
 Model                              8          1 -1.23031896E-09       *                      1_GWF-(1,4,8)
 Package                            8             2.02731263E-08       *            1_GWF-SFR_0-(13)-inflow
 ----------------------------------------------------------------------------------------------------------


 8 CALLS TO NUMERICAL SOLUTION IN TIME STEP 21 STRESS PERIOD 2
 21 TOTAL ITERATIONS
 
    Solving:  Stress period:     2    Time step:    22
 

 SLN_1 OUTER ITERATION SUMMARY
 ----------------------------------------------------------------------------------------------------------
                                OUTER      INNER                    STEP   MAXIMUM CHANGE MODEL-(CELLID) OR
 OUTER ITERATION STEP       ITERATION  ITERATION  MAXIMUM CHANGE SUCCESS             MODEL-PACKAGE-(NUMBER)
 ----------------------------------------------------------------------------------------------------------
 Model                              1          5      -2.3749868                              1_GWF-(1,8,2)
 Model                              2          5     -0.42991039                              1_GWF-(1,4,8)
 Model                              3          4 -1.24881231E-02                              1_GWF-(1,4,8)
 Model                              4          2 -3.43148036E-04                              1_GWF-(1,4,8)
 Model                              5          2 -9.77759942E-06                              1_GWF-(1,4,8)
 Model                              6          1 -2.82250994E-07       *                      1_GWF-(1,4,8)
 Package                            6             5.77224673E-05                    1_GWF-SFR_0-(36)-inflow
 Model                              7          1 -4.25529834E-09       *                      1_GWF-(1,4,8)
 Package                            7             8.03894715E-07       *            1_GWF-SFR_0-(13)-inflow
 ----------------------------------------------------------------------------------------------------------


 7 CALLS TO NUMERICAL SOLUTION IN TIME STEP 22 STRESS PERIOD 2
 20 TOTAL ITERATIONS
 
    Solving:  Stress period:     2    Time step:    23
 

 SLN_1 OUTER ITERATION SUMMARY
 ----------------------------------------------------------------------------------------------------------
                                OUTER      INNER                    STEP   MAXIMUM CHANGE MODEL-(CELLID) OR
 OUTER ITERATION STEP       ITERATION  ITERATION  MAXIMUM CHANGE SUCCESS             MODEL-PACKAGE-(NUMBER)
 ----------------------------------------------------------------------------------------------------------
 Model                              1          6      -2.4536566                              1_GWF-(1,8,2)
 Model                              2          5     -0.51993747                              1_GWF-(1,4,8)
 Model                              3          4 -1.84816081E-02                              1_GWF-(1,4,8)
 Model                              4          3 -5.74461219E-04                              1_GWF-(1,4,8)
 Model                              5          2 -1.84958326E-05                              1_GWF-(1,4,8)
 Model                              6          1 -5.96016207E-07       *                      1_GWF-(1,4,8)
 Package                            6             6.82171075E-05                    1_GWF-SFR_0-(36)-inflow
 Model                              7          1 -1.31828983E-08       *                      1_GWF-(1,4,8)
 Package                            7             2.00309020E-06                    1_GWF-SFR_0-(13)-inflow
 Model                              8          1 -2.51407073E-09       *                      1_GWF-(1,4,8)
 Package                            8             7.84186264E-08       *            1_GWF-SFR_0-(13)-inflow
 ----------------------------------------------------------------------------------------------------------


 8 CALLS TO NUMERICAL SOLUTION IN TIME STEP 23 STRESS PERIOD 2
 23 TOTAL ITERATIONS
 
    Solving:  Stress period:     2    Time step:    24
 

 SLN_1 OUTER ITERATION SUMMARY
 ----------------------------------------------------------------------------------------------------------
                                OUTER      INNER                    STEP   MAXIMUM CHANGE MODEL-(CELLID) OR
 OUTER ITERATION STEP       ITERATION  ITERATION  MAXIMUM CHANGE SUCCESS             MODEL-PACKAGE-(NUMBER)
 ----------------------------------------------------------------------------------------------------------
 Model                              1          6      -2.5280062                              1_GWF-(1,8,2)
 Model                              2          5     -0.59534348                              1_GWF-(1,3,7)
 Model                              3          3 -5.35038438E-04                              1_GWF-(1,3,7)
 Model                              4          2 -1.39381410E-05                             1_GWF-(1,13,1)
 Model                              5          1 -2.62386379E-07       *                     1_GWF-(1,13,1)
 Package                            5             5.73618785E-03                    1_GWF-SFR_0-(36)-inflow
 Model                              6          1 -2.66209099E-09       *                     1_GWF-(1,12,2)
 Package                            6             7.93014841E-05                    1_GWF-SFR_0-(36)-inflow
 Model                              7          1 -4.02451406E-10       *                     1_GWF-(1,12,2)
 Package                            7             9.57756775E-07       *            1_GWF-SFR_0-(36)-inflow
 ----------------------------------------------------------------------------------------------------------


 7 CALLS TO NUMERICAL SOLUTION IN TIME STEP 24 STRESS PERIOD 2
 19 TOTAL ITERATIONS
 
    Solving:  Stress period:     2    Time step:    25
 

 SLN_1 OUTER ITERATION SUMMARY
 ----------------------------------------------------------------------------------------------------------
                                OUTER      INNER                    STEP   MAXIMUM CHANGE MODEL-(CELLID) OR
 OUTER ITERATION STEP       ITERATION  ITERATION  MAXIMUM CHANGE SUCCESS             MODEL-PACKAGE-(NUMBER)
 ----------------------------------------------------------------------------------------------------------
 Model                              1          6      -2.6043193                              1_GWF-(1,7,2)
 Model                              2          5 -3.60389240E-02                              1_GWF-(1,6,6)
 Model                              3          3 -4.94931632E-04                             1_GWF-(1,13,1)
 Model                              4          2 -1.46634122E-05                             1_GWF-(1,13,1)
 Model                              5          1 -2.80376071E-07       *                     1_GWF-(1,13,1)
 Package                            5             6.62264726E-03                    1_GWF-SFR_0-(36)-inflow
 Model                              6          1 -3.03020897E-09       *                     1_GWF-(1,12,2)
 Package                            6             9.32864483E-05                    1_GWF-SFR_0-(36)-inflow
 Model                              7          1 -4.15411705E-10       *                     1_GWF-(1,12,2)
 Package                            7             1.19994645E-06                    1_GWF-SFR_0-(36)-inflow
 Model                              8          1 -2.11912266E-10       *                     1_GWF-(1,12,2)
 Package                            8             1.88635122E-07       *            1_GWF-SFR_0-(36)-inflow
 ----------------------------------------------------------------------------------------------------------


 8 CALLS TO NUMERICAL SOLUTION IN TIME STEP 25 STRESS PERIOD 2
 20 TOTAL ITERATIONS
 
    Solving:  Stress period:     2    Time step:    26
 

 SLN_1 OUTER ITERATION SUMMARY
 ----------------------------------------------------------------------------------------------------------
                                OUTER      INNER                    STEP   MAXIMUM CHANGE MODEL-(CELLID) OR
 OUTER ITERATION STEP       ITERATION  ITERATION  MAXIMUM CHANGE SUCCESS             MODEL-PACKAGE-(NUMBER)
 ----------------------------------------------------------------------------------------------------------
 Model                              1          6      -2.7252309                              1_GWF-(1,7,2)
 Model                              2          5 -4.44541299E-02                              1_GWF-(1,6,6)
 Model                              3          3 -5.14046207E-04                             1_GWF-(1,13,1)
 Model                              4          2 -1.55538473E-05                             1_GWF-(1,13,1)
 Model                              5          1 -3.06006200E-07       *                     1_GWF-(1,13,1)
 Package                            5             7.81257024E-03                    1_GWF-SFR_0-(36)-inflow
 Model                              6          1 -3.42845397E-09       *                     1_GWF-(1,12,2)
 Package                            6             1.14777832E-04                    1_GWF-SFR_0-(36)-inflow
 Model                              7          1 -3.98699740E-10       *                     1_GWF-(1,12,2)
 Package                            7             1.61870851E-06                    1_GWF-SFR_0-(36)-inflow
 Model                              8          1 -2.04636308E-10       *                     1_GWF-(1,12,2)
 Package                            8             2.17883133E-07       *            1_GWF-SFR_0-(36)-inflow
 ----------------------------------------------------------------------------------------------------------


 8 CALLS TO NUMERICAL SOLUTION IN TIME STEP 26 STRESS PERIOD 2
 20 TOTAL ITERATIONS
 
    Solving:  Stress period:     2    Time step:    27
 

 SLN_1 OUTER ITERATION SUMMARY
 ----------------------------------------------------------------------------------------------------------
                                OUTER      INNER                    STEP   MAXIMUM CHANGE MODEL-(CELLID) OR
 OUTER ITERATION STEP       ITERATION  ITERATION  MAXIMUM CHANGE SUCCESS             MODEL-PACKAGE-(NUMBER)
 ----------------------------------------------------------------------------------------------------------
 Model                              1          6      -2.8458672                              1_GWF-(1,7,2)
 Model                              2          5 -7.59065814E-02                             1_GWF-(1,12,8)
 Model                              3          3 -6.08476313E-04                             1_GWF-(1,13,1)
 Model                              4          2 -2.47840006E-05                             1_GWF-(1,13,1)
 Model                              5          1 -7.39613938E-07       *                     1_GWF-(1,13,1)
 Package                            5             2.02261363E-02                    1_GWF-SFR_0-(36)-inflow
 Model                              6          1 -1.64571929E-08       *                     1_GWF-(1,13,1)
 Package                            6             4.57947353E-04                    1_GWF-SFR_0-(36)-inflow
 Model                              7          1 -5.02836883E-10       *                     1_GWF-(1,10,5)
 Package                            7             9.40557545E-06                    1_GWF-SFR_0-(36)-inflow
 Model                              8          1 -3.11842996E-10       *                     1_GWF-(1,10,5)
 Package                            8             2.15868853E-07       *            1_GWF-SFR_0-(36)-inflow
 ----------------------------------------------------------------------------------------------------------


 8 CALLS TO NUMERICAL SOLUTION IN TIME STEP 27 STRESS PERIOD 2
 20 TOTAL ITERATIONS
 
    Solving:  Stress period:     2    Time step:    28
 

 SLN_1 OUTER ITERATION SUMMARY
 ----------------------------------------------------------------------------------------------------------
                                OUTER      INNER                    STEP   MAXIMUM CHANGE MODEL-(CELLID) OR
 OUTER ITERATION STEP       ITERATION  ITERATION  MAXIMUM CHANGE SUCCESS             MODEL-PACKAGE-(NUMBER)
 ----------------------------------------------------------------------------------------------------------
 Model                              1          6      -2.9658021                              1_GWF-(1,7,2)
 Model                              2          5 -6.84699952E-02                              1_GWF-(1,5,6)
 Model                              3          3 -5.86588299E-04                             1_GWF-(1,13,1)
 Model                              4          2 -1.82640013E-05                             1_GWF-(1,13,1)
 Model                              5          1 -3.69153781E-07       *                     1_GWF-(1,13,1)
 Package                            5             1.10392851E-02                    1_GWF-SFR_0-(36)-inflow
 Model                              6          1 -4.44890702E-09       *                     1_GWF-(1,13,1)
 Package                            6             1.69499892E-04                    1_GWF-SFR_0-(36)-inflow
 Model                              7          1 -3.82556209E-10       *                     1_GWF-(1,11,5)
 Package                            7             2.66395788E-06                    1_GWF-SFR_0-(36)-inflow
 Model                              8          1 -2.18392415E-10       *                     1_GWF-(1,11,5)
 Package                            8             2.75016766E-07       *            1_GWF-SFR_0-(36)-inflow
 ----------------------------------------------------------------------------------------------------------


 8 CALLS TO NUMERICAL SOLUTION IN TIME STEP 28 STRESS PERIOD 2
 20 TOTAL ITERATIONS
 
    Solving:  Stress period:     2    Time step:    29
 

 SLN_1 OUTER ITERATION SUMMARY
 ----------------------------------------------------------------------------------------------------------
                                OUTER      INNER                    STEP   MAXIMUM CHANGE MODEL-(CELLID) OR
 OUTER ITERATION STEP       ITERATION  ITERATION  MAXIMUM CHANGE SUCCESS             MODEL-PACKAGE-(NUMBER)
 ----------------------------------------------------------------------------------------------------------
 Model                              1          7      -3.1154849                              1_GWF-(1,7,1)
 Model                              2          6 -7.84769326E-02                              1_GWF-(1,5,6)
 Model                              3          3 -7.32580331E-04                             1_GWF-(1,13,1)
 Model                              4          2 -3.18426562E-05                             1_GWF-(1,13,1)
 Model                              5          1 -9.12743644E-07       *                     1_GWF-(1,13,1)
 Package                            5             2.93615151E-02                    1_GWF-SFR_0-(36)-inflow
 Model                              6          1 -1.84306828E-08       *                     1_GWF-(1,13,1)
 Package                            6             5.93059491E-04                    1_GWF-SFR_0-(36)-inflow
 Model                              7          1 -1.03136699E-09       *                     1_GWF-(1,10,5)
 Package                            7             1.16720591E-05                    1_GWF-SFR_0-(36)-inflow
 Model                              8          1 -5.69571057E-10       *                     1_GWF-(1,10,5)
 Package                            8             3.82962519E-07       *            1_GWF-SFR_0-(36)-inflow
 ----------------------------------------------------------------------------------------------------------


 8 CALLS TO NUMERICAL SOLUTION IN TIME STEP 29 STRESS PERIOD 2
 22 TOTAL ITERATIONS
 
    Solving:  Stress period:     2    Time step:    30
 

 SLN_1 OUTER ITERATION SUMMARY
 ----------------------------------------------------------------------------------------------------------
                                OUTER      INNER                    STEP   MAXIMUM CHANGE MODEL-(CELLID) OR
 OUTER ITERATION STEP       ITERATION  ITERATION  MAXIMUM CHANGE SUCCESS             MODEL-PACKAGE-(NUMBER)
 ----------------------------------------------------------------------------------------------------------
 Model                              1          7      -3.2625030                              1_GWF-(1,7,1)
 Model                              2          6 -8.77619985E-02                              1_GWF-(1,5,6)
 Model                              3          4 -6.45333124E-04                             1_GWF-(1,13,1)
 Model                              4          2 -2.13139472E-05                             1_GWF-(1,13,1)
 Model                              5          1 -4.56665248E-07       *                     1_GWF-(1,13,1)
 Package                            5             1.60294641E-02                    1_GWF-SFR_0-(36)-inflow
 Model                              6          1 -6.39977316E-09       *                     1_GWF-(1,13,1)
 Package                            6             2.56997423E-04                    1_GWF-SFR_0-(36)-inflow
 Model                              7          1 -5.49675860E-10       *                     1_GWF-(1,10,5)
 Package                            7             4.58027868E-06                    1_GWF-SFR_0-(36)-inflow
 Model                              8          1 -3.30146577E-10       *                     1_GWF-(1,10,5)
 Package                            8             3.55996413E-07       *            1_GWF-SFR_0-(36)-inflow
 ----------------------------------------------------------------------------------------------------------


 8 CALLS TO NUMERICAL SOLUTION IN TIME STEP 30 STRESS PERIOD 2
 23 TOTAL ITERATIONS
 
    Solving:  Stress period:     2    Time step:    31
 

 SLN_1 OUTER ITERATION SUMMARY
 ----------------------------------------------------------------------------------------------------------
                                OUTER      INNER                    STEP   MAXIMUM CHANGE MODEL-(CELLID) OR
 OUTER ITERATION STEP       ITERATION  ITERATION  MAXIMUM CHANGE SUCCESS             MODEL-PACKAGE-(NUMBER)
 ----------------------------------------------------------------------------------------------------------
 Model                              1          7      -3.4013711                              1_GWF-(1,7,1)
 Model                              2          6 -9.68836491E-02                              1_GWF-(1,5,6)
 Model                              3          4 -6.75864282E-04                             1_GWF-(1,13,1)
 Model                              4          2 -2.26841629E-05                             1_GWF-(1,13,1)
 Model                              5          1 -4.93661787E-07       *                     1_GWF-(1,13,1)
 Package                            5             1.87858443E-02                    1_GWF-SFR_0-(36)-inflow
 Model                              6          1 -7.29596650E-09       *                     1_GWF-(1,13,1)
 Package                            6             3.06801706E-04                    1_GWF-SFR_0-(36)-inflow
 Model                              7          1 -6.54267751E-10       *                     1_GWF-(1,10,5)
 Package                            7             5.76153756E-06                    1_GWF-SFR_0-(36)-inflow
 Model                              8          1 -3.96653377E-10       *                     1_GWF-(1,10,5)
 Package                            8             4.12079867E-07       *            1_GWF-SFR_0-(36)-inflow
 ----------------------------------------------------------------------------------------------------------


 8 CALLS TO NUMERICAL SOLUTION IN TIME STEP 31 STRESS PERIOD 2
 23 TOTAL ITERATIONS
 
    Solving:  Stress period:     2    Time step:    32
 

 SLN_1 OUTER ITERATION SUMMARY
 ----------------------------------------------------------------------------------------------------------
                                OUTER      INNER                    STEP   MAXIMUM CHANGE MODEL-(CELLID) OR
 OUTER ITERATION STEP       ITERATION  ITERATION  MAXIMUM CHANGE SUCCESS             MODEL-PACKAGE-(NUMBER)
 ----------------------------------------------------------------------------------------------------------
 Model                              1          7      -3.5311043                              1_GWF-(1,7,1)
 Model                              2          6     -0.39285291                              1_GWF-(1,1,1)
 Model                              3          4 -6.95428231E-04                             1_GWF-(1,13,1)
 Model                              4          2 -2.33771262E-05                             1_GWF-(1,13,1)
 Model                              5          1 -5.10927293E-07       *                     1_GWF-(1,13,1)
 Package                            5             2.10925036E-02                    1_GWF-SFR_0-(36)-inflow
 Model                              6          1 -8.18852186E-09       *                     1_GWF-(1,13,1)
 Package                            6             3.49005874E-04                    1_GWF-SFR_0-(36)-inflow
 Model                              7          1 -1.16676802E-09       *                      1_GWF-(1,9,5)
 Package                            7             7.17207279E-06                    1_GWF-SFR_0-(36)-inflow
 Model                              8          1 -6.82348400E-10       *                      1_GWF-(1,9,5)
 Package                            8             5.26948902E-07       *            1_GWF-SFR_0-(36)-inflow
 ----------------------------------------------------------------------------------------------------------


 8 CALLS TO NUMERICAL SOLUTION IN TIME STEP 32 STRESS PERIOD 2
 23 TOTAL ITERATIONS
 
    Solving:  Stress period:     2    Time step:    33
 

 SLN_1 OUTER ITERATION SUMMARY
 ----------------------------------------------------------------------------------------------------------
                                OUTER      INNER                    STEP   MAXIMUM CHANGE MODEL-(CELLID) OR
 OUTER ITERATION STEP       ITERATION  ITERATION  MAXIMUM CHANGE SUCCESS             MODEL-PACKAGE-(NUMBER)
 ----------------------------------------------------------------------------------------------------------
 Model                              1          7      -3.6500143                              1_GWF-(1,6,1)
 Model                              2          5 -1.05338261E-02                             1_GWF-(1,13,2)
 Model                              3          4 -7.17064871E-04                             1_GWF-(1,13,1)
 Model                              4          2 -2.42822491E-05                             1_GWF-(1,13,1)
 Model                              5          1 -5.34682272E-07       *                     1_GWF-(1,13,1)
 Package                            5             2.39514235E-02                    1_GWF-SFR_0-(36)-inflow
 Model                              6          1 -9.04719855E-09       *                     1_GWF-(1,13,1)
 Package                            6             4.01385086E-04                    1_GWF-SFR_0-(36)-inflow
 Model                              7          1 -1.66630798E-09       *                      1_GWF-(1,9,5)
 Package                            7             8.84273889E-06                    1_GWF-SFR_0-(36)-inflow
 Model                              8          1 -9.16315912E-10       *                      1_GWF-(1,9,5)
 Package                            8             6.42597117E-07       *            1_GWF-SFR_0-(36)-inflow
 ----------------------------------------------------------------------------------------------------------


 8 CALLS TO NUMERICAL SOLUTION IN TIME STEP 33 STRESS PERIOD 2
 22 TOTAL ITERATIONS
 
    Solving:  Stress period:     2    Time step:    34
 

 SLN_1 OUTER ITERATION SUMMARY
 ----------------------------------------------------------------------------------------------------------
                                OUTER      INNER                    STEP   MAXIMUM CHANGE MODEL-(CELLID) OR
 OUTER ITERATION STEP       ITERATION  ITERATION  MAXIMUM CHANGE SUCCESS             MODEL-PACKAGE-(NUMBER)
 ----------------------------------------------------------------------------------------------------------
 Model                              1          7      -3.7640679                              1_GWF-(1,6,1)
 Model                              2          5 -1.06993933E-02                             1_GWF-(1,13,2)
 Model                              3          4 -7.34677324E-04                             1_GWF-(1,13,1)
 Model                              4          2 -2.50390283E-05                             1_GWF-(1,13,1)
 Model                              5          1 -5.55664997E-07       *                     1_GWF-(1,13,1)
 Package                            5             2.70173820E-02                    1_GWF-SFR_0-(36)-inflow
 Model                              6          1 -9.91110483E-09       *                     1_GWF-(1,13,1)
 Package                            6             4.59094759E-04                    1_GWF-SFR_0-(36)-inflow
 Model                              7          1 -2.34422259E-09       *                      1_GWF-(1,9,5)
 Package                            7             1.08824795E-05                    1_GWF-SFR_0-(36)-inflow
 Model                              8          1 -1.19393917E-09       *                      1_GWF-(1,8,5)
 Package                            8             7.73144932E-07       *            1_GWF-SFR_0-(36)-inflow
 ----------------------------------------------------------------------------------------------------------


 8 CALLS TO NUMERICAL SOLUTION IN TIME STEP 34 STRESS PERIOD 2
 22 TOTAL ITERATIONS
 
    Solving:  Stress period:     2    Time step:    35
 

 SLN_1 OUTER ITERATION SUMMARY
 ----------------------------------------------------------------------------------------------------------
                                OUTER      INNER                    STEP   MAXIMUM CHANGE MODEL-(CELLID) OR
 OUTER ITERATION STEP       ITERATION  ITERATION  MAXIMUM CHANGE SUCCESS             MODEL-PACKAGE-(NUMBER)
 ----------------------------------------------------------------------------------------------------------
 Model                              1          7      -3.8612718                              1_GWF-(1,6,1)
 Model                              2          5 -1.16122592E-02                             1_GWF-(1,13,2)
 Model                              3          4 -7.66358023E-04                             1_GWF-(1,13,1)
 Model                              4          2 -2.58739974E-05                             1_GWF-(1,13,1)
 Model                              5          1 -5.82409825E-07       *                     1_GWF-(1,13,1)
 Package                            5             3.07417091E-02                    1_GWF-SFR_0-(36)-inflow
 Model                              6          1 -1.23058044E-08       *                     1_GWF-(1,10,5)
 Package                            6             5.32921315E-04                    1_GWF-SFR_0-(36)-inflow
 Model                              7          1 -3.36603989E-09       *                      1_GWF-(1,8,5)
 Package                            7             1.36857802E-05                    1_GWF-SFR_0-(36)-inflow
 Model                              8          1 -1.54363988E-09       *                      1_GWF-(1,8,5)
 Package                            8             9.31538372E-07       *            1_GWF-SFR_0-(36)-inflow
 ----------------------------------------------------------------------------------------------------------


 8 CALLS TO NUMERICAL SOLUTION IN TIME STEP 35 STRESS PERIOD 2
 22 TOTAL ITERATIONS
 
    Solving:  Stress period:     2    Time step:    36
 

 SLN_1 OUTER ITERATION SUMMARY
 ----------------------------------------------------------------------------------------------------------
                                OUTER      INNER                    STEP   MAXIMUM CHANGE MODEL-(CELLID) OR
 OUTER ITERATION STEP       ITERATION  ITERATION  MAXIMUM CHANGE SUCCESS             MODEL-PACKAGE-(NUMBER)
 ----------------------------------------------------------------------------------------------------------
 Model                              1          7      -3.9407914                              1_GWF-(1,6,1)
 Model                              2          5 -1.08961693E-02                             1_GWF-(1,13,2)
 Model                              3          4 -7.65629172E-04                             1_GWF-(1,13,1)
 Model                              4          2 -2.65842026E-05                             1_GWF-(1,13,1)
 Model                              5          1 -6.02135742E-07       *                     1_GWF-(1,13,1)
 Package                            5             3.45201324E-02                    1_GWF-SFR_0-(36)-inflow
 Model                              6          1 -1.60134732E-08       *                      1_GWF-(1,9,5)
 Package                            6             6.06082144E-04                    1_GWF-SFR_0-(36)-inflow
 Model                              7          1 -4.53894700E-09       *                      1_GWF-(1,8,5)
 Package                            7             1.66989549E-05                    1_GWF-SFR_0-(36)-inflow
 Model                              8          1 -1.90129867E-09       *                      1_GWF-(1,8,5)
 Package                            8             1.16459031E-06                    1_GWF-SFR_0-(36)-inflow
 Model                              9          1 -1.13766419E-09       *                      1_GWF-(1,8,5)
 Package                            9             5.69635386E-07       *            1_GWF-SFR_0-(36)-inflow
 ----------------------------------------------------------------------------------------------------------


 9 CALLS TO NUMERICAL SOLUTION IN TIME STEP 36 STRESS PERIOD 2
 23 TOTAL ITERATIONS
 
    Solving:  Stress period:     2    Time step:    37
 

 SLN_1 OUTER ITERATION SUMMARY
[...]
 Model                             12          1  3.70391717E-10       *                      1_GWF-(1,6,3)
 Package                           12            -5.19314551E-06                    1_GWF-SFR_0-(27)-inflow
 Model                             13          1  2.93539415E-10       *                      1_GWF-(1,6,3)
 Package                           13            -3.90216821E-06                    1_GWF-SFR_0-(27)-inflow
 Model                             14          1  2.40106601E-10       *                      1_GWF-(1,6,3)
 Package                           14            -3.07646777E-06                    1_GWF-SFR_0-(27)-inflow
 Model                             15          1  2.01680450E-10       *                      1_GWF-(1,6,3)
 Package                           15            -2.50044250E-06                    1_GWF-SFR_0-(27)-inflow
 Model                             16          1  1.72349246E-10       *                      1_GWF-(1,6,3)
 Package                           16            -2.08772503E-06                    1_GWF-SFR_0-(27)-inflow
 Model                             17          1  1.49611878E-10       *                      1_GWF-(1,6,3)
 Package                           17            -1.77807278E-06                    1_GWF-SFR_0-(27)-inflow
 Model                             18          1  1.31421984E-10       *                      1_GWF-(1,6,3)
 Package                           18            -1.53835356E-06                    1_GWF-SFR_0-(27)-inflow
 Model                             19          1  1.16870069E-10       *                      1_GWF-(1,6,3)
 Package                           19            -1.34873389E-06                    1_GWF-SFR_0-(27)-inflow
 Model                             20          1  1.04819264E-10       *                      1_GWF-(1,6,3)
 Package                           20            -1.19404051E-06                    1_GWF-SFR_0-(27)-inflow
 Model                             21          1  9.45874490E-11       *                      1_GWF-(1,6,3)
 Package                           21            -1.06845070E-06                    1_GWF-SFR_0-(27)-inflow
 Model                             22          1  8.59472493E-11       *                      1_GWF-(1,6,3)
 Package                           22            -9.61499634E-07       *            1_GWF-SFR_0-(27)-inflow
 ----------------------------------------------------------------------------------------------------------


 22 CALLS TO NUMERICAL SOLUTION IN TIME STEP 47 STRESS PERIOD 3
 36 TOTAL ITERATIONS
 
    Solving:  Stress period:     3    Time step:    48
 

 SLN_1 OUTER ITERATION SUMMARY
 ----------------------------------------------------------------------------------------------------------
                                OUTER      INNER                    STEP   MAXIMUM CHANGE MODEL-(CELLID) OR
 OUTER ITERATION STEP       ITERATION  ITERATION  MAXIMUM CHANGE SUCCESS             MODEL-PACKAGE-(NUMBER)
 ----------------------------------------------------------------------------------------------------------
 Model                              1          6      0.17157373                            1_GWF-(1,10,10)
 Model                              2          5  2.95024440E-03                              1_GWF-(1,6,6)
 Model                              3          4  8.69573014E-05                             1_GWF-(1,11,7)
 Model                              4          2  5.47827062E-06                             1_GWF-(1,12,7)
 Model                              5          1  3.90334321E-07       *                     1_GWF-(1,13,1)
 Package                            5            -7.84567702E-02                    1_GWF-SFR_0-(36)-inflow
 Model                              6          1  3.63945674E-08       *                      1_GWF-(1,7,3)
 Package                            6            -5.10275489E-03                    1_GWF-SFR_0-(36)-inflow
 Model                              7          1  8.71250450E-09       *                      1_GWF-(1,6,3)
 Package                            7            -5.30740990E-04                    1_GWF-SFR_0-(27)-inflow
 Model                              8          1  2.21348273E-09       *                      1_GWF-(1,6,3)
 Package                            8            -1.13394425E-04                    1_GWF-SFR_0-(27)-inflow
 Model                              9          1  1.15414878E-09       *                      1_GWF-(1,6,3)
 Package                            9            -2.41923097E-05                    1_GWF-SFR_0-(27)-inflow
 Model                             10          1  7.43511919E-10       *                      1_GWF-(1,6,3)
 Package                           10            -1.24402392E-05                    1_GWF-SFR_0-(27)-inflow
 Model                             11          1  5.31372280E-10       *                      1_GWF-(1,6,3)
 Package                           11            -7.94132349E-06                    1_GWF-SFR_0-(27)-inflow
 Model                             12          1  4.05179890E-10       *                      1_GWF-(1,6,3)
 Package                           12            -5.64303610E-06                    1_GWF-SFR_0-(27)-inflow
 Model                             13          1  3.22188498E-10       *                      1_GWF-(1,6,3)
 Package                           13            -4.27785819E-06                    1_GWF-SFR_0-(27)-inflow
 Model                             14          1  2.64662958E-10       *                      1_GWF-(1,6,3)
 Package                           14            -3.38665884E-06                    1_GWF-SFR_0-(27)-inflow
 Model                             15          1  2.22371455E-10       *                      1_GWF-(1,6,3)
 Package                           15            -2.77216418E-06                    1_GWF-SFR_0-(27)-inflow
 Model                             16          1  1.90311766E-10       *                      1_GWF-(1,6,3)
 Package                           16            -2.32291399E-06                    1_GWF-SFR_0-(27)-inflow
 Model                             17          1  1.65300662E-10       *                      1_GWF-(1,6,3)
 Package                           17            -1.98315273E-06                    1_GWF-SFR_0-(27)-inflow
 Model                             18          1  1.45519152E-10       *                      1_GWF-(1,6,3)
 Package                           18            -1.71835316E-06                    1_GWF-SFR_0-(27)-inflow
 Model                             19          1  1.29375621E-10       *                      1_GWF-(1,6,3)
 Package                           19            -1.50817636E-06                    1_GWF-SFR_0-(27)-inflow
 Model                             20          1  1.16187948E-10       *                      1_GWF-(1,6,3)
 Package                           20            -1.33926146E-06                    1_GWF-SFR_0-(27)-inflow
 Model                             21          1  1.04819264E-10       *                      1_GWF-(1,6,3)
 Package                           21            -1.20028079E-06                    1_GWF-SFR_0-(27)-inflow
 Model                             22          1  9.52695700E-11       *                      1_GWF-(1,6,3)
 Package                           22            -1.07835577E-06                    1_GWF-SFR_0-(27)-inflow
 Model                             23          1  8.70841177E-11       *                      1_GWF-(1,6,3)
 Package                           23            -9.80588312E-07       *            1_GWF-SFR_0-(27)-inflow
 ----------------------------------------------------------------------------------------------------------


 23 CALLS TO NUMERICAL SOLUTION IN TIME STEP 48 STRESS PERIOD 3
 36 TOTAL ITERATIONS
 
    Solving:  Stress period:     3    Time step:    49
 

 SLN_1 OUTER ITERATION SUMMARY
 ----------------------------------------------------------------------------------------------------------
                                OUTER      INNER                    STEP   MAXIMUM CHANGE MODEL-(CELLID) OR
 OUTER ITERATION STEP       ITERATION  ITERATION  MAXIMUM CHANGE SUCCESS             MODEL-PACKAGE-(NUMBER)
 ----------------------------------------------------------------------------------------------------------
 Model                              1          5  8.21915282E-02                            1_GWF-(1,10,10)
 Model                              2          5  1.20614854E-03                              1_GWF-(1,6,6)
 Model                              3          4  3.55792154E-05                             1_GWF-(1,11,7)
 Model                              4          2  2.27373744E-06                             1_GWF-(1,12,7)
 Model                              5          1  1.61533535E-07       *                     1_GWF-(1,13,1)
 Package                            5            -3.56169357E-02                    1_GWF-SFR_0-(36)-inflow
 Model                              6          1  1.38454652E-08       *                      1_GWF-(1,8,3)
 Package                            6            -2.34009881E-03                    1_GWF-SFR_0-(36)-inflow
 Model                              7          1  4.01064426E-09       *                      1_GWF-(1,6,3)
 Package                            7            -2.32485878E-04                    1_GWF-SFR_0-(27)-inflow
 Model                              8          1  1.55591806E-09       *                      1_GWF-(1,6,3)
 Package                            8            -5.36067190E-05                    1_GWF-SFR_0-(27)-inflow
 Model                              9          1  9.06084097E-10       *                      1_GWF-(1,6,3)
 Package                            9            -1.98123720E-05                    1_GWF-SFR_0-(27)-inflow
 Model                             10          1  6.15273166E-10       *                      1_GWF-(1,6,3)
 Package                           10            -1.13026885E-05                    1_GWF-SFR_0-(27)-inflow
 Model                             11          1  4.54292604E-10       *                      1_GWF-(1,6,3)
 Package                           11            -7.57261319E-06                    1_GWF-SFR_0-(27)-inflow
 Model                             12          1  3.53793439E-10       *                      1_GWF-(1,6,3)
 Package                           12            -5.53979906E-06                    1_GWF-SFR_0-(27)-inflow
 Model                             13          1  2.86263457E-10       *                      1_GWF-(1,6,3)
 Package                           13            -4.28193349E-06                    1_GWF-SFR_0-(27)-inflow
 Model                             14          1  2.37832865E-10       *                      1_GWF-(1,6,3)
 Package                           14            -3.44170884E-06                    1_GWF-SFR_0-(27)-inflow
 Model                             15          1  2.01907824E-10       *                      1_GWF-(1,6,3)
 Package                           15            -2.84712985E-06                    1_GWF-SFR_0-(27)-inflow
 Model                             16          1  1.74168235E-10       *                      1_GWF-(1,6,3)
 Package                           16            -2.40848629E-06                    1_GWF-SFR_0-(27)-inflow
 Model                             17          1  1.52567736E-10       *                      1_GWF-(1,6,3)
 Package                           17            -2.06624799E-06                    1_GWF-SFR_0-(27)-inflow
 Model                             18          1  1.35059963E-10       *                      1_GWF-(1,6,3)
 Package                           18            -1.80459117E-06                    1_GWF-SFR_0-(27)-inflow
 Model                             19          1  1.20508048E-10       *                      1_GWF-(1,6,3)
 Package                           19            -1.59102869E-06                    1_GWF-SFR_0-(27)-inflow
 Model                             20          1  1.08684617E-10       *                      1_GWF-(1,6,3)
 Package                           20            -1.41469660E-06                    1_GWF-SFR_0-(27)-inflow
 Model                             21          1  9.84528015E-11       *                      1_GWF-(1,6,3)
 Package                           21            -1.27462144E-06                    1_GWF-SFR_0-(27)-inflow
 Model                             22          1  8.98126018E-11       *                      1_GWF-(1,6,3)
 Package                           22            -1.15197141E-06                    1_GWF-SFR_0-(27)-inflow
 Model                             23          1  8.25366442E-11       *                      1_GWF-(1,6,3)
 Package                           23            -1.05014635E-06                    1_GWF-SFR_0-(27)-inflow
 Model                             24          1  7.59428076E-11       *                      1_GWF-(1,6,3)
 Package                           24            -9.61168674E-07       *            1_GWF-SFR_0-(27)-inflow
 ----------------------------------------------------------------------------------------------------------


 24 CALLS TO NUMERICAL SOLUTION IN TIME STEP 49 STRESS PERIOD 3
 36 TOTAL ITERATIONS
 
    Solving:  Stress period:     3    Time step:    50
 

 SLN_1 OUTER ITERATION SUMMARY
 ----------------------------------------------------------------------------------------------------------
                                OUTER      INNER                    STEP   MAXIMUM CHANGE MODEL-(CELLID) OR
 OUTER ITERATION STEP       ITERATION  ITERATION  MAXIMUM CHANGE SUCCESS             MODEL-PACKAGE-(NUMBER)
 ----------------------------------------------------------------------------------------------------------
 Model                              1          5  3.69934053E-02                            1_GWF-(1,10,10)
 Model                              2          4  4.72082233E-04                              1_GWF-(1,6,6)
 Model                              3          3  1.39797835E-05                             1_GWF-(1,11,7)
 Model                              4          1  8.88881686E-07       *                     1_GWF-(1,12,7)
 Package                            4                -0.28200388                    1_GWF-SFR_0-(27)-inflow
 Model                              5          1  9.27334440E-08       *                      1_GWF-(1,8,3)
 Package                            5            -1.51420782E-02                    1_GWF-SFR_0-(36)-inflow
 Model                              6          1  2.16991793E-08       *                      1_GWF-(1,7,3)
 Package                            6            -1.83155100E-03                    1_GWF-SFR_0-(27)-inflow
 Model                              7          1  5.48652679E-09       *                      1_GWF-(1,6,3)
 Package                            7            -3.56632670E-04                    1_GWF-SFR_0-(27)-inflow
 Model                              8          1  1.92540028E-09       *                      1_GWF-(1,6,3)
 Package                            8            -7.35803114E-05                    1_GWF-SFR_0-(27)-inflow
 Model                              9          1  1.08775566E-09       *                      1_GWF-(1,6,3)
 Package                            9            -2.45877562E-05                    1_GWF-SFR_0-(27)-inflow
 Model                             10          1  7.26686267E-10       *                      1_GWF-(1,6,3)
 Package                           10            -1.36629497E-05                    1_GWF-SFR_0-(27)-inflow
 Model                             11          1  5.30690158E-10       *                      1_GWF-(1,6,3)
 Package                           11            -9.03444331E-06                    1_GWF-SFR_0-(27)-inflow
 Model                             12          1  4.10409484E-10       *                      1_GWF-(1,6,3)
 Package                           12            -6.55342492E-06                    1_GWF-SFR_0-(27)-inflow
 Model                             13          1  3.29919203E-10       *                      1_GWF-(1,6,3)
 Package                           13            -5.04060805E-06                    1_GWF-SFR_0-(27)-inflow
 Model                             14          1  2.72848411E-10       *                      1_GWF-(1,6,3)
 Package                           14            -4.03474319E-06                    1_GWF-SFR_0-(27)-inflow
 Model                             15          1  2.30784281E-10       *                      1_GWF-(1,6,3)
 Package                           15            -3.32069765E-06                    1_GWF-SFR_0-(27)-inflow
 Model                             16          1  1.98497219E-10       *                      1_GWF-(1,6,3)
 Package                           16            -2.80228788E-06                    1_GWF-SFR_0-(27)-inflow
 Model                             17          1  1.73258741E-10       *                      1_GWF-(1,6,3)
 Package                           17            -2.40220351E-06                    1_GWF-SFR_0-(27)-inflow
 Model                             18          1  1.53022484E-10       *                      1_GWF-(1,6,3)
 Package                           18            -2.08814329E-06                    1_GWF-SFR_0-(27)-inflow
 Model                             19          1  1.36424205E-10       *                      1_GWF-(1,6,3)
 Package                           19            -1.84389506E-06                    1_GWF-SFR_0-(27)-inflow
 Model                             20          1  1.22554411E-10       *                      1_GWF-(1,6,3)
 Package                           20            -1.64055743E-06                    1_GWF-SFR_0-(27)-inflow
 Model                             21          1  1.10958354E-10       *                      1_GWF-(1,6,3)
 Package                           21            -1.47105229E-06                    1_GWF-SFR_0-(27)-inflow
 Model                             22          1  1.01181286E-10       *                      1_GWF-(1,6,3)
 Package                           22            -1.32712900E-06                    1_GWF-SFR_0-(27)-inflow
 Model                             23          1  9.25410859E-11       *                      1_GWF-(1,6,3)
 Package                           23            -1.21107642E-06                    1_GWF-SFR_0-(27)-inflow
 Model                             24          1  8.52651283E-11       *                      1_GWF-(1,6,3)
 Package                           24            -1.10528496E-06                    1_GWF-SFR_0-(27)-inflow
 Model                             25          1  7.88986654E-11       *                      1_GWF-(1,6,3)
 Package                           25            -1.01677382E-06                    1_GWF-SFR_0-(27)-inflow
 Model                             26          1  7.32143235E-11       *                      1_GWF-(1,6,3)
 Package                           26            -9.38253412E-07       *            1_GWF-SFR_0-(27)-inflow
 ----------------------------------------------------------------------------------------------------------


 26 CALLS TO NUMERICAL SOLUTION IN TIME STEP 50 STRESS PERIOD 3
 35 TOTAL ITERATIONS

 MEMORY MANAGER TOTAL STORAGE BY DATA TYPE, IN KILOBYTES
 -------------------------------
                    ALLOCATED   
 DATA TYPE           MEMORY     
 -------------------------------
 Character        10.741000     
 Logical          4.40000000E-02
 Integer          33.116000     
 Real             83.680000     
 -------------------------------
 Total            127.58100     
 Virtual          0.0000000     
 -------------------------------


 
 Run end date and time (yyyy/mm/dd hh:mm:ss): 2025/11/14 10:25:58
 Elapsed run time:  0.580 Seconds
 Normal termination of simulation.
