                                   MODFLOW 6
                U.S. GEOLOGICAL SURVEY MODULAR HYDROLOGIC MODEL
                          GROUNDWATER FLOW MODEL (GWF)
                            VERSION 6.5.0 05/23/2024

   MODFLOW 6 compiled Jun 21 2024 02:57:23 with Intel(R) Fortran Intel(R) 64
   Compiler Classic for applications running on Intel(R) 64, Version 2021.7.0
                             Build 20220726_000000

This software has been approved for release by the U.S. Geological 
Survey (USGS). Although the software has been subjected to rigorous 
review, the USGS reserves the right to update the software as needed 
pursuant to further analysis and review. No warranty, expressed or 
implied, is made by the USGS or the U.S. Government as to the 
functionality of the software and related material nor shall the 
fact of release constitute any such warranty. Furthermore, the 
software is released on condition that neither the USGS nor the U.S. 
Government shall be held liable for any damages resulting from its 
authorized or unauthorized use. Also refer to the USGS Water 
Resources Software User Rights Notice for complete use, copyright, 
and distribution information.


As a work of the United States Government, this USGS product is 
in the public domain within the United States. You can copy, 
modify, distribute, and perform the work, even for commercial 
purposes, all without asking permission. Additionally, USGS 
waives copyright and related rights in the work worldwide 
through CC0 1.0 Universal Public Domain Dedication 
(https://creativecommons.org/publicdomain/zero/1.0/).

The following GNU Lesser General Public License (LGPL) libraries
are used in this USGS product:

    SPARSKIT version 2.0
      ilut, luson, and qsplit 
      (https://www-users.cse.umn.edu/~saad/software/SPARSKIT/)

    RCM - Reverse Cuthill McKee Ordering
      (https://people.math.sc.edu/Burkardt/f_src/rcm/rcm.html)

    BLAS - Basic Linear Algebra Subprograms Level 1
      (https://people.math.sc.edu/Burkardt/f_src/blas1_d/blas1_d.html)

    SPARSEKIT - Sparse Matrix Utility Package
      amux, dperm, dvperm, rperm, and cperm
      (https://people.sc.fsu.edu/~jburkardt/f77_src/sparsekit/sparsekit.html)

The following BSD-3 License libraries are used in this USGS product:

    Modern Fortran DAG Library
      Copyright (c) 2018, Jacob Williams
      All rights reserved.
      (https://github.com/jacobwilliams/daglib)

MODFLOW 6 compiler options: /O2 /heap-arrays:0 /fpe:0 /traceback /nologo /fpp
/c /module:win64\mod_mf6\ /object:win64\obj_mf6\

System command used to initiate simulation:
C:\Users\gross.DESKTOP-AIRQM2M\anaconda3\envs\gmdsitut\Scripts\mf6.exe

MODFLOW was compiled using uniform precision.

Real Variables
  KIND: 8
  TINY (smallest non-zero value):    2.225074-308
  HUGE (largest value):    1.797693+308
  PRECISION: 15
  SIZE IN BITS: 64

Integer Variables
  KIND: 4
  HUGE (largest value): 2147483647
  SIZE IN BITS: 32

Long Integer Variables
  KIND: 8
  HUGE (largest value): 9223372036854775807
  SIZE IN BITS: 64

Logical Variables
  KIND: 4
  SIZE IN BITS: 32
 
 NAMEFILE OPTIONS:
    NEWTON-RAPHSON method enabled for the model.
    FLOWS WILL BE SAVED TO BUDGET FILE SPECIFIED IN OUTPUT CONTROL
 END NAMEFILE OPTIONS:

 DIS -- STRUCTURED GRID DISCRETIZATION PACKAGE, VERSION 2 : 3/27/2014 - INPUT READ FROM MEMPATH: __INPUT__/E13/DIS                                 


 NPF -- NODE PROPERTY FLOW PACKAGE, VERSION 1, 3/30/2015 INPUT READ FROM MEMPATH: __INPUT__/E13/NPF                                 


 IC -- Initial Conditions Package, Version 8, 3/28/2015 input read from mempath: __INPUT__/E13/IC                                  


 Setting Discretization Options
    Model length unit [0=UND, 1=FEET, 2=METERS, 3=CENTIMETERS] set as 1
 End Setting Discretization Options

 Setting Discretization Dimensions
    NLAY = 2
    NROW = 15
    NCOL = 10
 End Setting Discretization Dimensions

 Setting Discretization Griddata
    DELR set from input file
    DELC set from input file
    TOP set from input file
    BOTM set from input file
    IDOMAIN set from input file
 End Setting Discretization Griddata


 The specified IDOMAIN results in a reduced number of cells.
 Number of user nodes: 300
 Number of nodes in solution: 216


 Setting NPF Options
    Alternative cell averaging [1=logarithmic, 2=AMT-LMK, 3=AMT-HMK] set to: 3
    Specific discharge will be calculated at cell centers and written to DATA-SPDIS in budget file when requested.
 End Setting NPF Options

 Setting NPF Griddata
    ICELLTYPE set from input file
    K set from input file
    K33 set from input file
    K22 not provided.  Setting K22 = K.
 End Setting NPF Griddata


 WEL   -- WEL PACKAGE, VERSION 8, 2/22/2014 INPUT READ FROM MEMPATH: __INPUT__/E13/WEL-1                               

 PROCESSING WEL BASE OPTIONS
    FLOWS WILL BE SAVED TO BUDGET FILE SPECIFIED IN OUTPUT CONTROL
    LISTS OF WEL CELLS WILL BE PRINTED.
    WEL FLOWS WILL BE PRINTED TO LISTING FILE.
 END OF WEL BASE OPTIONS

 PROCESSING WEL OPTIONS
    MOVER OPTION ENABLED
 END OF WEL OPTIONS

 PROCESSING WEL BASE DIMENSIONS
    MAXBOUND =      10
 END OF WEL BASE DIMENSIONS

 GHB   -- GHB PACKAGE, VERSION 8, 2/22/2014 INPUT READ FROM MEMPATH: __INPUT__/E13/GHB_0                               

 PROCESSING GHB BASE OPTIONS
 END OF GHB BASE OPTIONS

 PROCESSING GHB OPTIONS
 END OF GHB OPTIONS

 PROCESSING GHB BASE DIMENSIONS
    MAXBOUND =       2
 END OF GHB BASE DIMENSIONS

 SFR   -- SFR PACKAGE, VERSION 8, 2/22/2014 INPUT READ FROM UNIT 1012
 # File generated by Flopy version 3.8.2 on 11/13/2025 at 07:52:39.

 PROCESSING SFR OPTIONS
    SFR BOUNDARIES HAVE NAMES IN LAST COLUMN.
    SFR STAGES WILL BE PRINTED TO LISTING FILE.
    SFR FLOWS WILL BE PRINTED TO LISTING FILE.
    FLOWS WILL BE SAVED TO BUDGET FILE SPECIFIED IN OUTPUT CONTROL

 OPENED e13.sfr.bud
 FILE TYPE:DATA(BINARY)   UNIT 1017   STATUS:REPLACE             
 FORMAT:UNFORMATTED            ACCESS:STREAM              
 ACTION:READWRITE           

    SFR  BUDGET  WILL BE SAVED TO FILE: e13.sfr.bud
    OPENED ON UNIT: 1017

 OPENED e13.sfr.obs
 FILE TYPE:OBS   UNIT 1018   STATUS:OLD                 
 FORMAT:FORMATTED              ACCESS:SEQUENTIAL          
 ACTION:READ                

    MOVER OPTION ENABLED
    MAXIMUM DEPTH CHANGE VALUE (.1000000000000000E-05) SPECIFIED.
    LENGTH CONVERSION VALUE (3.280810000000000) SPECIFIED.
 END OF SFR OPTIONS

 PROCESSING SFR DIMENSIONS
    NREACHES = 31
 END OF SFR DIMENSIONS

 PROCESSING SFR PACKAGEDATA
 END OF SFR PACKAGEDATA

 PROCESSING SFR CONNECTIONDATA
 END OF SFR CONNECTIONDATA

 PROCESSING SFR DIVERSIONS
 END OF SFR DIVERSIONS

 LAK   -- LAK PACKAGE, VERSION 8, 2/22/2014 INPUT READ FROM UNIT 1013
 # File generated by Flopy version 3.8.2 on 11/13/2025 at 07:52:39.

 PROCESSING LAK OPTIONS
    LAK STAGES WILL BE PRINTED TO LISTING FILE.
    LAK FLOWS WILL BE PRINTED TO LISTING FILE.
    FLOWS WILL BE SAVED TO BUDGET FILE SPECIFIED IN OUTPUT CONTROL

 OPENED e13.lak.bud
 FILE TYPE:DATA(BINARY)   UNIT 1019   STATUS:REPLACE             
 FORMAT:UNFORMATTED            ACCESS:STREAM              
 ACTION:READWRITE           

    LAK  BUDGET  WILL BE SAVED TO FILE: e13.lak.bud
    OPENED ON UNIT: 1019

 OPENED e13.lak.obs
 FILE TYPE:OBS   UNIT 1020   STATUS:OLD                 
 FORMAT:FORMATTED              ACCESS:SEQUENTIAL          
 ACTION:READ                

    MOVER OPTION ENABLED
    LENGTH CONVERSION VALUE (   3.280810    ) SPECIFIED.
 END OF LAK OPTIONS

 PROCESSING LAK DIMENSIONS
    NLAKES =       2
    NOUTLETS =       2
 END OF LAK DIMENSIONS

 PROCESSING LAK PACKAGEDATA
 END OF LAK PACKAGEDATA


    MAXBOUND =      38

 PROCESSING LAK LAKE_CONNECTIONS
 END OF LAK CONNECTIONDATA

 PROCESSING LAK OUTLETS
 END OF LAK OUTLETS

 UZF   -- UZF CELLS PACKAGE, VERSION 8, 2/22/2014 INPUT READ FROM UNIT 1014
 # File generated by Flopy version 3.8.2 on 11/13/2025 at 07:52:39.

 PROCESSING UZF CELLS OPTIONS
    UZF CELLS BOUNDARIES HAVE NAMES IN LAST COLUMN.
    FLOWS WILL BE SAVED TO BUDGET FILE SPECIFIED IN OUTPUT CONTROL

 OPENED e13.uzf.bud
 FILE TYPE:DATA(BINARY)   UNIT 1021   STATUS:REPLACE             
 FORMAT:UNFORMATTED            ACCESS:STREAM              
 ACTION:READWRITE           

    UZF  BUDGET  WILL BE SAVED TO FILE: e13.uzf.bud
    OPENED ON UNIT: 1021

 OPENED e13.uzf.obs
 FILE TYPE:OBS   UNIT 1022   STATUS:OLD                 
 FORMAT:FORMATTED              ACCESS:SEQUENTIAL          
 ACTION:READ                

    ET WILL BE SIMULATED WITHIN UZ AND GW ZONES, WITH LINEAR GWET IF OPTION NOT SPECIFIED OTHERWISE.
    GROUNDWATER ET FUNCTION WILL BE LINEAR.
    GROUNDWATER DISCHARGE TO LAND SURFACE WILL BE SIMULATED.
 END OF UZF CELLS OPTIONS

 PROCESSING UZF CELLS DIMENSIONS
    NUZFCELLS = 200
    NTRAILWAVES = 10
    NTRAILSETS = 50
 END OF UZF CELLS DIMENSIONS

 PROCESSING UZF CELLS PACKAGEDATA
    STRT set from input file

 STO -- STORAGE PACKAGE, VERSION 1, 5/19/2014 INPUT READ FROM UNIT 1006


 # File generated by Flopy version 3.8.2 on 11/13/2025 at 07:52:39.
 PROCESSING STORAGE OPTIONS
 END OF STORAGE OPTIONS
 PROCESSING GRIDDATA

                 ICONVERT = 1

         SPECIFIC STORAGE =  0.1000000E-05
 END PROCESSING GRIDDATA

 MVR -- WATER MOVER PACKAGE, VERSION 8, 1/29/2016 INPUT READ FROM UNIT 1008
 # File generated by Flopy version 3.8.2 on 11/13/2025 at 07:52:39.
 PROCESSING MVR OPTIONS
    LISTS OF WATER MOVER FLOWS WILL BE PRINTED TO LIST FILE.

 OPENED e13.mvr.bud
 FILE TYPE:DATA(BINARY)   UNIT 1023   STATUS:REPLACE             
 FORMAT:UNFORMATTED            ACCESS:STREAM              
 ACTION:READWRITE           

    MVR  BUDGET  WILL BE SAVED TO FILE: e13.mvr.bud
    OPENED ON UNIT: 1023
 END OF MVR OPTIONS

 PROCESSING MVR DIMENSIONS
    MAXMVR = 200
    MAXPACKAGES = 4
 END OF MVR DIMENSIONS

 PROCESSING MVR PACKAGES
   INCLUDING PACKAGE: E13/UZF-1
   INCLUDING PACKAGE: E13/SFR-1
   INCLUDING PACKAGE: E13/LAK-1
   INCLUDING PACKAGE: E13/WEL-1
 END OF MVR PACKAGES
    BINARY GRID INFORMATION WILL BE WRITTEN TO:
      UNIT NUMBER: 1024
      FILE NAME: e13.dis.grb

 OPENED e13.dis.grb
 FILE TYPE:DATA(BINARY)   UNIT 1024   STATUS:REPLACE             
 FORMAT:UNFORMATTED            ACCESS:STREAM              
 ACTION:READWRITE           

      THE LAST TIME STEP WILL BE PRINTED
      THE LAST TIME STEP WILL BE PRINTED
 # File generated by Flopy version 3.8.2 on 11/13/2025 at 07:52:39.

 PROCESSING OC OPTIONS

    BUDGET INFORMATION WILL BE WRITTEN TO:
      UNIT NUMBER: 1025
      FILE NAME: e13.cbc

 OPENED e13.cbc
 FILE TYPE:DATA(BINARY)   UNIT 1025   STATUS:REPLACE             
 FORMAT:UNFORMATTED            ACCESS:STREAM              
 ACTION:READWRITE           

    HEAD INFORMATION WILL BE WRITTEN TO:
      UNIT NUMBER: 1026
      FILE NAME: e13.hds

 OPENED e13.hds
 FILE TYPE:DATA(BINARY)   UNIT 1026   STATUS:REPLACE             
 FORMAT:UNFORMATTED            ACCESS:STREAM              
 ACTION:READWRITE           

 END OF OC OPTIONS

The observation utility is active for "SFR-1"
 # File generated by Flopy version 3.8.2 on 11/13/2025 at 07:52:39.

Processing observation options:

Text output number of digits of precision set to: 10
The PRINT_INPUT option has been specified.


 OBSERVATIONS READ FROM FILE "e13.sfr.obs"
 ----------------------------------------------------------------------------------------------------------------------------------------------------------------------------------------------------------------------------
 NAME                                     TYPE                                       TIME         LOCATION DATA                              OUTPUT FILENAME                                                                 
 ----------------------------------------------------------------------------------------------------------------------------------------------------------------------------------------------------------------------------
 EXTIN                                    CONTINUOUS  EXT-INFLOW                     ALL TIMES    "  allreaches"                             sfr.allreaches.csv                                                              
 INFLOW                                   CONTINUOUS  INFLOW                         ALL TIMES    "  allreaches"                             sfr.allreaches.csv                                                              
 FROMMVR                                  CONTINUOUS  FROM-MVR                       ALL TIMES    "  allreaches"                             sfr.allreaches.csv                                                              
 GWF                                      CONTINUOUS  SFR                            ALL TIMES    "  allreaches"                             sfr.allreaches.csv                                                              
 OUTFLOW                                  CONTINUOUS  OUTFLOW                        ALL TIMES    "  allreaches"                             sfr.allreaches.csv                                                              
 EXTOUT                                   CONTINUOUS  EXT-OUTFLOW                    ALL TIMES    "  allreaches"                             sfr.allreaches.csv                                                              
 TOMVR                                    CONTINUOUS  TO-MVR                         ALL TIMES    "  allreaches"                             sfr.allreaches.csv                                                              
 EXTIN                                    CONTINUOUS  EXT-INFLOW                     ALL TIMES    "  1"                                      sfr.reach01.csv                                                                 
 INFLOW                                   CONTINUOUS  INFLOW                         ALL TIMES    "  1"                                      sfr.reach01.csv                                                                 
 FROMMVR                                  CONTINUOUS  FROM-MVR                       ALL TIMES    "  1"                                      sfr.reach01.csv                                                                 
 GWF                                      CONTINUOUS  SFR                            ALL TIMES    "  1"                                      sfr.reach01.csv                                                                 
 OUTFLOW                                  CONTINUOUS  OUTFLOW                        ALL TIMES    "  1"                                      sfr.reach01.csv                                                                 
 EXTOUT                                   CONTINUOUS  EXT-OUTFLOW                    ALL TIMES    "  1"                                      sfr.reach01.csv                                                                 
 TOMVR                                    CONTINUOUS  TO-MVR                         ALL TIMES    "  1"                                      sfr.reach01.csv                                                                 
 EXTIN                                    CONTINUOUS  EXT-INFLOW                     ALL TIMES    "  24"                                     sfr.reach24.csv                                                                 
 INFLOW                                   CONTINUOUS  INFLOW                         ALL TIMES    "  24"                                     sfr.reach24.csv                                                                 
 FROMMVR                                  CONTINUOUS  FROM-MVR                       ALL TIMES    "  24"                                     sfr.reach24.csv                                                                 
 GWF                                      CONTINUOUS  SFR                            ALL TIMES    "  24"                                     sfr.reach24.csv                                                                 
 OUTFLOW                                  CONTINUOUS  OUTFLOW                        ALL TIMES    "  24"                                     sfr.reach24.csv                                                                 
 EXTOUT                                   CONTINUOUS  EXT-OUTFLOW                    ALL TIMES    "  24"                                     sfr.reach24.csv                                                                 
 TOMVR                                    CONTINUOUS  TO-MVR                         ALL TIMES    "  24"                                     sfr.reach24.csv                                                                 
 EXTIN                                    CONTINUOUS  EXT-INFLOW                     ALL TIMES    "  29"                                     sfr.reach29.csv                                                                 
 INFLOW                                   CONTINUOUS  INFLOW                         ALL TIMES    "  29"                                     sfr.reach29.csv                                                                 
 FROMMVR                                  CONTINUOUS  FROM-MVR                       ALL TIMES    "  29"                                     sfr.reach29.csv                                                                 
 GWF                                      CONTINUOUS  SFR                            ALL TIMES    "  29"                                     sfr.reach29.csv                                                                 
 OUTFLOW                                  CONTINUOUS  OUTFLOW                        ALL TIMES    "  29"                                     sfr.reach29.csv                                                                 
 EXTOUT                                   CONTINUOUS  EXT-OUTFLOW                    ALL TIMES    "  29"                                     sfr.reach29.csv                                                                 
 TOMVR                                    CONTINUOUS  TO-MVR                         ALL TIMES    "  29"                                     sfr.reach29.csv                                                                 
 EXTIN                                    CONTINUOUS  EXT-INFLOW                     ALL TIMES    "  31"                                     sfr.reach31.csv                                                                 
 INFLOW                                   CONTINUOUS  INFLOW                         ALL TIMES    "  31"                                     sfr.reach31.csv                                                                 
 FROMMVR                                  CONTINUOUS  FROM-MVR                       ALL TIMES    "  31"                                     sfr.reach31.csv                                                                 
 GWF                                      CONTINUOUS  SFR                            ALL TIMES    "  31"                                     sfr.reach31.csv                                                                 
 OUTFLOW                                  CONTINUOUS  OUTFLOW                        ALL TIMES    "  31"                                     sfr.reach31.csv                                                                 
 EXTOUT                                   CONTINUOUS  EXT-OUTFLOW                    ALL TIMES    "  31"                                     sfr.reach31.csv                                                                 
 TOMVR                                    CONTINUOUS  TO-MVR                         ALL TIMES    "  31"                                     sfr.reach31.csv                                                                 
 S01                                      CONTINUOUS  STAGE                          ALL TIMES    "  1"                                      sfr.stage.csv                                                                   
 S24                                      CONTINUOUS  STAGE                          ALL TIMES    "  24"                                     sfr.stage.csv                                                                   
 S29                                      CONTINUOUS  STAGE                          ALL TIMES    "  29"                                     sfr.stage.csv                                                                   
 S31                                      CONTINUOUS  STAGE                          ALL TIMES    "  31"                                     sfr.stage.csv                                                                   
 ----------------------------------------------------------------------------------------------------------------------------------------------------------------------------------------------------------------------------


 SFR PACKAGE (SFR-1) CONVERSION DATA
    UNIT CONVERSION VALUE (1.485914064252526).


The observation utility is active for "LAK-1"
 # File generated by Flopy version 3.8.2 on 11/13/2025 at 07:52:39.

Processing observation options:

Text output number of digits of precision set to: 10


The observation utility is active for "UZF-1"
 # File generated by Flopy version 3.8.2 on 11/13/2025 at 07:52:39.

Processing observation options:

The PRINT_INPUT option has been specified.


 OBSERVATIONS READ FROM FILE "e13.uzf.obs"
 ----------------------------------------------------------------------------------------------------------------------------------------------------------------------------------------------------------------------------
 NAME                                     TYPE                                       TIME         LOCATION DATA                              OUTPUT FILENAME                                                                 
 ----------------------------------------------------------------------------------------------------------------------------------------------------------------------------------------------------------------------------
 NINFIL                                   CONTINUOUS  NET-INFILTRATION               ALL TIMES    "  ag"                                     obs_uzf.csv                                                                     
 REJINF                                   CONTINUOUS  REJ-INF                        ALL TIMES    "  ag"                                     obs_uzf.csv                                                                     
 REJINFMVR                                CONTINUOUS  REJ-INF-TO-MVR                 ALL TIMES    "  ag"                                     obs_uzf.csv                                                                     
 INFIL                                    CONTINUOUS  INFILTRATION                   ALL TIMES    "  ag"                                     obs_uzf.csv                                                                     
 FROMMVR                                  CONTINUOUS  FROM-MVR                       ALL TIMES    "  ag"                                     obs_uzf.csv                                                                     
 GWRCH                                    CONTINUOUS  UZF-GWRCH                      ALL TIMES    "  ag"                                     obs_uzf.csv                                                                     
 GWET                                     CONTINUOUS  UZF-GWET                       ALL TIMES    "  ag"                                     obs_uzf.csv                                                                     
 UZET                                     CONTINUOUS  UZET                           ALL TIMES    "  ag"                                     obs_uzf.csv                                                                     
 ID26_INFIL                               CONTINUOUS  INFILTRATION                   ALL TIMES    "  26"                                     obs_uzf_column.csv                                                              
 ID126_INFIL                              CONTINUOUS  INFILTRATION                   ALL TIMES    "  126"                                    obs_uzf_column.csv                                                              
 ID26_DPTH=20                             CONTINUOUS  WATER-CONTENT                  ALL TIMES    "  26  20.0"                               obs_uzf_column.csv                                                              
 ID126_DPTH=51                            CONTINUOUS  WATER-CONTENT                  ALL TIMES    "  126  1.0"                               obs_uzf_column.csv                                                              
 ID26_RCH                                 CONTINUOUS  UZF-GWRCH                      ALL TIMES    "  26"                                     obs_uzf_column.csv                                                              
 ID126_RCH                                CONTINUOUS  UZF-GWRCH                      ALL TIMES    "  126"                                    obs_uzf_column.csv                                                              
 ID26_GWET                                CONTINUOUS  UZF-GWET                       ALL TIMES    "  26"                                     obs_uzf_column.csv                                                              
 ID126_GWET                               CONTINUOUS  UZF-GWET                       ALL TIMES    "  126"                                    obs_uzf_column.csv                                                              
 ID26_UZET                                CONTINUOUS  UZET                           ALL TIMES    "  26"                                     obs_uzf_column.csv                                                              
 ID126_UZET                               CONTINUOUS  UZET                           ALL TIMES    "  126"                                    obs_uzf_column.csv                                                              
 ID26_GWD2MVR                             CONTINUOUS  UZF-GWD-TO-MVR                 ALL TIMES    "  26"                                     obs_uzf_column.csv                                                              
 ID126_GWD2MVR                            CONTINUOUS  UZF-GWD-TO-MVR                 ALL TIMES    "  126"                                    obs_uzf_column.csv                                                              
 ID26_REJINF                              CONTINUOUS  REJ-INF-TO-MVR                 ALL TIMES    "  26"                                     obs_uzf_column.csv                                                              
 ID126_REJINF                             CONTINUOUS  REJ-INF-TO-MVR                 ALL TIMES    "  126"                                    obs_uzf_column.csv                                                              
 ----------------------------------------------------------------------------------------------------------------------------------------------------------------------------------------------------------------------------



start timestep kper="1" kstp="1" mode="normal"


 BEGIN READING OUTPUT CONTROL FOR STRESS PERIOD 1
      THE LAST TIME STEP WILL BE SAVED
      THE LAST TIME STEP WILL BE SAVED

 END READING OUTPUT CONTROL FOR STRESS PERIOD 1


 PROCESSING STORAGE PERIOD DATA
 END PROCESSING STORAGE PERIOD DATA


 STRESS PERIOD 1 IS STEADY-STATE


  READING WATER MOVERS FOR PERIOD 1

 END OF DATA FOR PERIOD      1

    114 MOVERS READ FOR PERIOD 1
 ----------------------------------
  WEL NO.    LAYER    ROW     COL  
 ----------------------------------
     1         1       4       8   
     2         1       4       9   
     3         1       5       8   
     4         1       5       9   
     5         1       6       6   
     6         1       6       7   
     7         1       7       4   
     8         1       7       5   
     9         1       8       2   
     10        1       8       3   
 ----------------------------------


 UBDSV1 SAVING           STO-SS ON UNIT   1025 AT TIME STEP      1, STRESS PERIOD      1
 UBDSV1 SAVING           STO-SY ON UNIT   1025 AT TIME STEP      1, STRESS PERIOD      1
 UBDSV1 SAVING     FLOW-JA-FACE ON UNIT   1025 AT TIME STEP      1, STRESS PERIOD      1
 UBDSV06 SAVING       DATA-SPDIS IN MODEL E13              PACKAGE NPF             CONNECTED TO MODEL E13              PACKAGE NPF              ON UNIT   1025 AT TIME STEP      1, STRESS PERIOD      1
 UBDSV06 SAVING              WEL IN MODEL E13              PACKAGE E13             CONNECTED TO MODEL E13              PACKAGE WEL-1            ON UNIT   1025 AT TIME STEP      1, STRESS PERIOD      1
 UBDSV06 SAVING       WEL-TO-MVR IN MODEL E13              PACKAGE E13             CONNECTED TO MODEL E13              PACKAGE WEL-1            ON UNIT   1025 AT TIME STEP      1, STRESS PERIOD      1
 UBDSV06 SAVING              GHB IN MODEL E13              PACKAGE E13             CONNECTED TO MODEL E13              PACKAGE GHB_0            ON UNIT   1025 AT TIME STEP      1, STRESS PERIOD      1
 UBDSV06 SAVING              SFR IN MODEL E13              PACKAGE E13             CONNECTED TO MODEL E13              PACKAGE SFR-1            ON UNIT   1025 AT TIME STEP      1, STRESS PERIOD      1
 UBDSV06 SAVING              LAK IN MODEL E13              PACKAGE E13             CONNECTED TO MODEL E13              PACKAGE LAK-1            ON UNIT   1025 AT TIME STEP      1, STRESS PERIOD      1
 UBDSV06 SAVING        UZF-GWRCH IN MODEL E13              PACKAGE E13             CONNECTED TO MODEL E13              PACKAGE UZF-1            ON UNIT   1025 AT TIME STEP      1, STRESS PERIOD      1
 UBDSV06 SAVING          UZF-GWD IN MODEL E13              PACKAGE E13             CONNECTED TO MODEL E13              PACKAGE UZF-1            ON UNIT   1025 AT TIME STEP      1, STRESS PERIOD      1
 UBDSV06 SAVING   UZF-GWD TO-MVR IN MODEL E13              PACKAGE E13             CONNECTED TO MODEL E13              PACKAGE UZF-1            ON UNIT   1025 AT TIME STEP      1, STRESS PERIOD      1
 UBDSV06 SAVING         UZF-GWET IN MODEL E13              PACKAGE E13             CONNECTED TO MODEL E13              PACKAGE UZF-1            ON UNIT   1025 AT TIME STEP      1, STRESS PERIOD      1
 UBDSV06 SAVING     FLOW-JA-FACE IN MODEL E13              PACKAGE SFR-1           CONNECTED TO MODEL E13              PACKAGE SFR-1            ON UNIT   1017 AT TIME STEP      1, STRESS PERIOD      1
 UBDSV06 SAVING              GWF IN MODEL E13              PACKAGE SFR-1           CONNECTED TO MODEL E13              PACKAGE E13              ON UNIT   1017 AT TIME STEP      1, STRESS PERIOD      1
 UBDSV06 SAVING         RAINFALL IN MODEL E13              PACKAGE SFR-1           CONNECTED TO MODEL E13              PACKAGE SFR-1            ON UNIT   1017 AT TIME STEP      1, STRESS PERIOD      1
 UBDSV06 SAVING      EVAPORATION IN MODEL E13              PACKAGE SFR-1           CONNECTED TO MODEL E13              PACKAGE SFR-1            ON UNIT   1017 AT TIME STEP      1, STRESS PERIOD      1
 UBDSV06 SAVING           RUNOFF IN MODEL E13              PACKAGE SFR-1           CONNECTED TO MODEL E13              PACKAGE SFR-1            ON UNIT   1017 AT TIME STEP      1, STRESS PERIOD      1
 UBDSV06 SAVING       EXT-INFLOW IN MODEL E13              PACKAGE SFR-1           CONNECTED TO MODEL E13              PACKAGE SFR-1            ON UNIT   1017 AT TIME STEP      1, STRESS PERIOD      1
 UBDSV06 SAVING      EXT-OUTFLOW IN MODEL E13              PACKAGE SFR-1           CONNECTED TO MODEL E13              PACKAGE SFR-1            ON UNIT   1017 AT TIME STEP      1, STRESS PERIOD      1
 UBDSV06 SAVING          STORAGE IN MODEL E13              PACKAGE SFR-1           CONNECTED TO MODEL E13              PACKAGE SFR-1            ON UNIT   1017 AT TIME STEP      1, STRESS PERIOD      1
 UBDSV06 SAVING         FROM-MVR IN MODEL E13              PACKAGE SFR-1           CONNECTED TO MODEL E13              PACKAGE SFR-1            ON UNIT   1017 AT TIME STEP      1, STRESS PERIOD      1
 UBDSV06 SAVING           TO-MVR IN MODEL E13              PACKAGE SFR-1           CONNECTED TO MODEL E13              PACKAGE SFR-1            ON UNIT   1017 AT TIME STEP      1, STRESS PERIOD      1
 UBDSV06 SAVING              GWF IN MODEL E13              PACKAGE LAK-1           CONNECTED TO MODEL E13              PACKAGE E13              ON UNIT   1019 AT TIME STEP      1, STRESS PERIOD      1
 UBDSV06 SAVING         RAINFALL IN MODEL E13              PACKAGE LAK-1           CONNECTED TO MODEL E13              PACKAGE LAK-1            ON UNIT   1019 AT TIME STEP      1, STRESS PERIOD      1
 UBDSV06 SAVING      EVAPORATION IN MODEL E13              PACKAGE LAK-1           CONNECTED TO MODEL E13              PACKAGE LAK-1            ON UNIT   1019 AT TIME STEP      1, STRESS PERIOD      1
 UBDSV06 SAVING           RUNOFF IN MODEL E13              PACKAGE LAK-1           CONNECTED TO MODEL E13              PACKAGE LAK-1            ON UNIT   1019 AT TIME STEP      1, STRESS PERIOD      1
 UBDSV06 SAVING       EXT-INFLOW IN MODEL E13              PACKAGE LAK-1           CONNECTED TO MODEL E13              PACKAGE LAK-1            ON UNIT   1019 AT TIME STEP      1, STRESS PERIOD      1
 UBDSV06 SAVING       WITHDRAWAL IN MODEL E13              PACKAGE LAK-1           CONNECTED TO MODEL E13              PACKAGE LAK-1            ON UNIT   1019 AT TIME STEP      1, STRESS PERIOD      1
 UBDSV06 SAVING      EXT-OUTFLOW IN MODEL E13              PACKAGE LAK-1           CONNECTED TO MODEL E13              PACKAGE LAK-1            ON UNIT   1019 AT TIME STEP      1, STRESS PERIOD      1
 UBDSV06 SAVING          STORAGE IN MODEL E13              PACKAGE LAK-1           CONNECTED TO MODEL E13              PACKAGE LAK-1            ON UNIT   1019 AT TIME STEP      1, STRESS PERIOD      1
 UBDSV06 SAVING         CONSTANT IN MODEL E13              PACKAGE LAK-1           CONNECTED TO MODEL E13              PACKAGE LAK-1            ON UNIT   1019 AT TIME STEP      1, STRESS PERIOD      1
 UBDSV06 SAVING         FROM-MVR IN MODEL E13              PACKAGE LAK-1           CONNECTED TO MODEL E13              PACKAGE LAK-1            ON UNIT   1019 AT TIME STEP      1, STRESS PERIOD      1
 UBDSV06 SAVING           TO-MVR IN MODEL E13              PACKAGE LAK-1           CONNECTED TO MODEL E13              PACKAGE LAK-1            ON UNIT   1019 AT TIME STEP      1, STRESS PERIOD      1
 UBDSV06 SAVING     FLOW-JA-FACE IN MODEL E13              PACKAGE UZF-1           CONNECTED TO MODEL E13              PACKAGE UZF-1            ON UNIT   1021 AT TIME STEP      1, STRESS PERIOD      1
 UBDSV06 SAVING              GWF IN MODEL E13              PACKAGE UZF-1           CONNECTED TO MODEL E13              PACKAGE E13              ON UNIT   1021 AT TIME STEP      1, STRESS PERIOD      1
 UBDSV06 SAVING     INFILTRATION IN MODEL E13              PACKAGE UZF-1           CONNECTED TO MODEL E13              PACKAGE UZF-1            ON UNIT   1021 AT TIME STEP      1, STRESS PERIOD      1
 UBDSV06 SAVING          REJ-INF IN MODEL E13              PACKAGE UZF-1           CONNECTED TO MODEL E13              PACKAGE UZF-1            ON UNIT   1021 AT TIME STEP      1, STRESS PERIOD      1
 UBDSV06 SAVING             UZET IN MODEL E13              PACKAGE UZF-1           CONNECTED TO MODEL E13              PACKAGE UZF-1            ON UNIT   1021 AT TIME STEP      1, STRESS PERIOD      1
 UBDSV06 SAVING          STORAGE IN MODEL E13              PACKAGE UZF-1           CONNECTED TO MODEL E13              PACKAGE UZF-1            ON UNIT   1021 AT TIME STEP      1, STRESS PERIOD      1
 UBDSV06 SAVING         FROM-MVR IN MODEL E13              PACKAGE UZF-1           CONNECTED TO MODEL E13              PACKAGE UZF-1            ON UNIT   1021 AT TIME STEP      1, STRESS PERIOD      1
 UBDSV06 SAVING   REJ-INF-TO-MVR IN MODEL E13              PACKAGE UZF-1           CONNECTED TO MODEL E13              PACKAGE UZF-1            ON UNIT   1021 AT TIME STEP      1, STRESS PERIOD      1
 UBDSV06 SAVING       MOVER-FLOW IN MODEL E13              PACKAGE UZF-1           CONNECTED TO MODEL E13              PACKAGE UZF-1            ON UNIT   1023 AT TIME STEP      1, STRESS PERIOD      1
 UBDSV06 SAVING       MOVER-FLOW IN MODEL E13              PACKAGE UZF-1           CONNECTED TO MODEL E13              PACKAGE SFR-1            ON UNIT   1023 AT TIME STEP      1, STRESS PERIOD      1
 UBDSV06 SAVING       MOVER-FLOW IN MODEL E13              PACKAGE UZF-1           CONNECTED TO MODEL E13              PACKAGE LAK-1            ON UNIT   1023 AT TIME STEP      1, STRESS PERIOD      1
 UBDSV06 SAVING       MOVER-FLOW IN MODEL E13              PACKAGE UZF-1           CONNECTED TO MODEL E13              PACKAGE WEL-1            ON UNIT   1023 AT TIME STEP      1, STRESS PERIOD      1
 UBDSV06 SAVING       MOVER-FLOW IN MODEL E13              PACKAGE SFR-1           CONNECTED TO MODEL E13              PACKAGE UZF-1            ON UNIT   1023 AT TIME STEP      1, STRESS PERIOD      1
 UBDSV06 SAVING       MOVER-FLOW IN MODEL E13              PACKAGE SFR-1           CONNECTED TO MODEL E13              PACKAGE SFR-1            ON UNIT   1023 AT TIME STEP      1, STRESS PERIOD      1
 UBDSV06 SAVING       MOVER-FLOW IN MODEL E13              PACKAGE SFR-1           CONNECTED TO MODEL E13              PACKAGE LAK-1            ON UNIT   1023 AT TIME STEP      1, STRESS PERIOD      1
 UBDSV06 SAVING       MOVER-FLOW IN MODEL E13              PACKAGE SFR-1           CONNECTED TO MODEL E13              PACKAGE WEL-1            ON UNIT   1023 AT TIME STEP      1, STRESS PERIOD      1
 UBDSV06 SAVING       MOVER-FLOW IN MODEL E13              PACKAGE LAK-1           CONNECTED TO MODEL E13              PACKAGE UZF-1            ON UNIT   1023 AT TIME STEP      1, STRESS PERIOD      1
 UBDSV06 SAVING       MOVER-FLOW IN MODEL E13              PACKAGE LAK-1           CONNECTED TO MODEL E13              PACKAGE SFR-1            ON UNIT   1023 AT TIME STEP      1, STRESS PERIOD      1
 UBDSV06 SAVING       MOVER-FLOW IN MODEL E13              PACKAGE LAK-1           CONNECTED TO MODEL E13              PACKAGE LAK-1            ON UNIT   1023 AT TIME STEP      1, STRESS PERIOD      1
 UBDSV06 SAVING       MOVER-FLOW IN MODEL E13              PACKAGE LAK-1           CONNECTED TO MODEL E13              PACKAGE WEL-1            ON UNIT   1023 AT TIME STEP      1, STRESS PERIOD      1
 UBDSV06 SAVING       MOVER-FLOW IN MODEL E13              PACKAGE WEL-1           CONNECTED TO MODEL E13              PACKAGE UZF-1            ON UNIT   1023 AT TIME STEP      1, STRESS PERIOD      1
 UBDSV06 SAVING       MOVER-FLOW IN MODEL E13              PACKAGE WEL-1           CONNECTED TO MODEL E13              PACKAGE SFR-1            ON UNIT   1023 AT TIME STEP      1, STRESS PERIOD      1
 UBDSV06 SAVING       MOVER-FLOW IN MODEL E13              PACKAGE WEL-1           CONNECTED TO MODEL E13              PACKAGE LAK-1            ON UNIT   1023 AT TIME STEP      1, STRESS PERIOD      1
 UBDSV06 SAVING       MOVER-FLOW IN MODEL E13              PACKAGE WEL-1           CONNECTED TO MODEL E13              PACKAGE WEL-1            ON UNIT   1023 AT TIME STEP      1, STRESS PERIOD      1

 WEL PACKAGE (WEL-1) FLOW RATES   PERIOD      1   STEP        1
 -----------------------------------------------
   NUMBER   CELLID                    RATE      
 -----------------------------------------------
     1      (1,6,4)               0.0000000     
     2      (1,6,5)               0.0000000     
     3      (1,7,4)               0.0000000     
     4      (1,7,5)               0.0000000     
     5      (1,8,4)               0.0000000     
     6      (1,8,5)               0.0000000     
     7      (1,9,4)               0.0000000     
     8      (1,9,5)               0.0000000     
     9      (1,10,4)              0.0000000     
     10     (1,10,5)              0.0000000     
 -----------------------------------------------




 WEL PACKAGE (WEL-1) FLOW RATES TO-MVR   PERIOD      1   STEP        1
 -----------------------------------------------
   NUMBER   CELLID                    RATE      
 -----------------------------------------------
     1      (1,6,4)               0.0000000     
     2      (1,6,5)               0.0000000     
     3      (1,7,4)               0.0000000     
     4      (1,7,5)               0.0000000     
     5      (1,8,4)               0.0000000     
     6      (1,8,5)               0.0000000     
     7      (1,9,4)               0.0000000     
     8      (1,9,5)               0.0000000     
     9      (1,10,4)              0.0000000     
     10     (1,10,5)              0.0000000     
 -----------------------------------------------




 SFR PACKAGE (SFR-1) FLOW RATES   PERIOD      1   STEP        1
 ----------------------------------------------------------------------------------------
   NUMBER   CELLID                    RATE       NAME                                    
 ----------------------------------------------------------------------------------------
     1      (1,1,1)               0.22868377     ALLREACHES                              
     2      (1,2,2)               0.35499870     ALLREACHES                              
     3      (1,3,3)               0.30357347     ALLREACHES                              
     4      (1,3,4)               0.28021936     ALLREACHES                              
     5      (1,4,5)               0.29960805     ALLREACHES                              
     6      (1,5,6)               0.22987955     ALLREACHES                              
     7      (1,6,6)               0.22936563     ALLREACHES                              
     8      (1,7,6)               0.22884928     ALLREACHES                              
     9      (1,8,6)               0.22833044     ALLREACHES                              
     10     (1,3,5)               2.12214188E-02 ALLREACHES                              
     11     (1,3,6)               1.99133007E-02 ALLREACHES                              
     12     (1,3,7)               1.67956407E-02 ALLREACHES                              
     13     (1,4,8)               2.07205450E-02 ALLREACHES                              
     14     (1,5,8)               1.57905563E-02 ALLREACHES                              
     15     (1,6,8)               5.93648362E-03 ALLREACHES                              
     16     (1,5,10)              9.09197693E-02 ALLREACHES                              
     17     (1,5,9)               0.18157734     ALLREACHES                              
     18     (1,6,8)               0.12689514     ALLREACHES                              
     19     (1,6,8)               0.17138468     ALLREACHES                              
     20     (1,7,7)               0.21384773     ALLREACHES                              
     21     (1,8,7)               0.14943953     ALLREACHES                              
     22     (1,8,6)               0.10661428     ALLREACHES                              
     23     (1,9,6)               0.24837387     ALLREACHES                              
     24     (1,12,7)              2.55042451E-02 ALLREACHES                              
     25     (1,13,7)              2.80506028E-02 ALLREACHES                              
     26     (1,14,9)              2.6922030      ALLREACHES                              
     27     (1,13,8)              2.6824902      ALLREACHES                              
     28     (1,13,7)              2.6727412      ALLREACHES                              
     29     (1,13,6)             -1.3751930      ALLREACHES                              
     30     (1,13,2)             -2.7828261      ALLREACHES                              
     31     (1,13,1)             -1.3238653      ALLREACHES                              
 ----------------------------------------------------------------------------------------




 LAK PACKAGE (LAK-1) FLOW RATES   PERIOD      1   STEP        1
 -----------------------------------------------
   NUMBER   CELLID                    RATE      
 -----------------------------------------------
     1      (1,9,7)               8.36487887E-03
     2      (1,10,6)              1.07376860E-02
     3      (2,10,7)              1.0163963     
     4      (1,9,8)               5.98378427E-03
     5      (1,10,9)              1.05189933E-04
     6      (2,10,8)              0.99942173    
     7      (1,11,6)              1.17756033E-02
     8      (1,12,7)              1.12421730E-02
     9      (2,11,7)              1.0206593     
     10     (1,11,9)              2.62794174E-03
     11     (1,12,8)              1.09871951E-02
     12     (2,11,8)              0.99966404    
     13     (1,10,3)             -3.81195697E-04
     14     (1,11,2)             -9.55982886E-04
     15     (2,11,3)             -0.60542204    
     16     (1,10,4)             -1.34514012E-03
     17     (2,11,4)             -0.62959103    
     18     (1,10,5)             -3.27952035E-03
     19     (1,11,6)             -4.02358148E-03
     20     (2,11,5)             -0.65905943    
     21     (1,12,2)             -3.57093033E-03
     22     (2,12,3)             -0.57334735    
     23     (2,12,4)             -0.60754538    
     24     (1,12,6)             -5.43007345E-03
     25     (2,12,5)             -0.64334670    
     26     (1,13,2)             -7.42674023E-04
     27     (2,13,3)             -0.55563097    
     28     (2,13,4)             -0.59543451    
     29     (1,13,6)             -5.79154878E-03
     30     (2,13,5)             -0.63325734    
     31     (1,14,2)             -3.35523271E-03
     32     (1,15,3)              0.0000000     
     33     (2,14,3)             -0.55947361    
     34     (1,15,4)              0.0000000     
     35     (2,14,4)             -0.59085103    
     36     (1,14,6)             -2.54461332E-03
     37     (1,15,5)              0.0000000     
     38     (2,14,5)             -0.62395077    
 -----------------------------------------------




 SFR-1 PACKAGE - SUMMARY OF FLOWS FOR EACH CONTROL VOLUME   PERIOD      1   STEP        1
 --------------------------------------------------------------------------------------------------------------------------------------------------------------------------------------------------------
                                                                                                                                                                                               PERCENT   
   NUMBER   CELLID                  INFLOW      OUTFLOW        GWF        RAINFALL   EVAPORATION     RUNOFF     EXT INFLOW  EXT OUTFLOW    STORAGE      FROM MVR      TO MVR      IN - OUT    DIFFERENCE 
 --------------------------------------------------------------------------------------------------------------------------------------------------------------------------------------------------------
     1      (1,1,1)               0.0000      -24.771      -0.22868      0.0000       0.0000       0.0000       25.000       0.0000       0.0000       0.0000       0.0000       0.0000       0.0000     
     2      (1,2,2)               24.771      -24.416      -0.35500      0.0000       0.0000       0.0000       0.0000       0.0000       0.0000       0.0000       0.0000       0.0000       0.0000     
     3      (1,3,3)               24.416      -24.113      -0.30357      0.0000       0.0000       0.0000       0.0000       0.0000       0.0000       0.0000       0.0000       0.0000       0.0000     
     4      (1,3,4)               24.113      -23.833      -0.28022      0.0000       0.0000       0.0000       0.0000       0.0000       0.0000       0.0000       0.0000       0.0000       0.0000     
     5      (1,4,5)               13.833      -13.533      -0.29961      0.0000       0.0000       0.0000       0.0000       0.0000       0.0000       0.0000       0.0000       0.0000       0.0000     
     6      (1,5,6)               13.533      -13.303      -0.22988      0.0000       0.0000       0.0000       0.0000       0.0000       0.0000       0.0000       0.0000       0.0000       0.0000     
     7      (1,6,6)               13.303      -13.074      -0.22937      0.0000       0.0000       0.0000       0.0000       0.0000       0.0000       0.0000       0.0000       0.0000       0.0000     
     8      (1,7,6)               13.074      -12.845      -0.22885      0.0000       0.0000       0.0000       0.0000       0.0000       0.0000       0.0000       0.0000       0.0000       0.0000     
     9      (1,8,6)               12.845      -12.616      -0.22833      0.0000       0.0000       0.0000       0.0000       0.0000       0.0000       0.0000       0.0000       0.0000       0.0000     
     10     (1,3,5)               10.000      -9.9788      -2.12214E-02  0.0000       0.0000       0.0000       0.0000       0.0000       0.0000       0.0000       0.0000       0.0000       0.0000     
     11     (1,3,6)               9.9788      -9.9589      -1.99133E-02  0.0000       0.0000       0.0000       0.0000       0.0000       0.0000       0.0000       0.0000       0.0000       0.0000     
     12     (1,3,7)               9.9589      -9.9421      -1.67956E-02  0.0000       0.0000       0.0000       0.0000       0.0000       0.0000       0.0000       0.0000       0.0000       0.0000     
     13     (1,4,8)               9.9421      -9.9213      -2.07205E-02  0.0000       0.0000       0.0000       0.0000       0.0000       0.0000       0.0000       0.0000       0.0000       0.0000     
     14     (1,5,8)               9.9213      -9.9056      -1.57906E-02  0.0000       0.0000       0.0000       0.0000       0.0000       0.0000       0.0000       0.0000       0.0000       0.0000     
     15     (1,6,8)               9.9056      -9.8996      -5.93648E-03  0.0000       0.0000       0.0000       0.0000       0.0000       0.0000       0.0000       0.0000       0.0000       0.0000     
     16     (1,5,10)              0.0000      -9.9091      -9.09198E-02  0.0000       0.0000       0.0000       10.000       0.0000       0.0000       0.0000       0.0000       0.0000       0.0000     
     17     (1,5,9)               9.9091      -9.7275      -0.18158      0.0000       0.0000       0.0000       0.0000       0.0000       0.0000       0.0000       0.0000       0.0000       0.0000     
     18     (1,6,8)               9.7275      -9.6006      -0.12690      0.0000       0.0000       0.0000       0.0000       0.0000       0.0000       0.0000       0.0000       0.0000       0.0000     
     19     (1,6,8)               19.500      -19.329      -0.17138      0.0000       0.0000       0.0000       0.0000       0.0000       0.0000       0.0000       0.0000       0.0000       0.0000     
     20     (1,7,7)               19.329      -19.115      -0.21385      0.0000       0.0000       0.0000       0.0000       0.0000       0.0000       0.0000       0.0000       0.0000       0.0000     
     21     (1,8,7)               19.115      -18.966      -0.14944      0.0000       0.0000       0.0000       0.0000       0.0000       0.0000       0.0000       0.0000       0.0000       0.0000     
     22     (1,8,6)               18.966      -18.859      -0.10661      0.0000       0.0000       0.0000       0.0000       0.0000       0.0000       0.0000       0.0000       0.0000       0.0000     
     23     (1,9,6)               31.475       0.0000      -0.24837      0.0000       0.0000       0.0000       0.0000       0.0000       0.0000       0.0000      -31.227       0.0000       0.0000     
     24     (1,12,7)              0.0000      -32.604      -2.55042E-02  0.0000       0.0000       0.0000       0.0000       0.0000       0.0000       32.629       0.0000       0.0000       0.0000     
     25     (1,13,7)              32.604      -32.576      -2.80506E-02  0.0000       0.0000       0.0000       0.0000       0.0000       0.0000       0.0000       0.0000       0.0000       0.0000     
     26     (1,14,9)              0.0000      -147.31      -2.6922       0.0000       0.0000       0.0000       150.00       0.0000       0.0000       0.0000       0.0000       0.0000       0.0000     
     27     (1,13,8)              147.31      -144.63      -2.6825       0.0000       0.0000       0.0000       0.0000       0.0000       0.0000       0.0000       0.0000       0.0000       0.0000     
     28     (1,13,7)              144.63      -141.95      -2.6727       0.0000       0.0000       0.0000       0.0000       0.0000       0.0000       0.0000       0.0000       0.0000       0.0000     
     29     (1,13,6)              174.53       0.0000       1.3752       0.0000       0.0000       0.0000       0.0000      -1.06892E-07  0.0000       0.0000      -175.90       0.0000       0.0000     
     30     (1,13,2)              0.0000      -189.17       2.7828       0.0000       0.0000       0.0000       0.0000       0.0000       0.0000       186.39       0.0000       0.0000       0.0000     
     31     (1,13,1)              189.17       0.0000       1.3239       0.0000       0.0000       0.0000       0.0000      -195.94       0.0000       5.4417       0.0000       0.0000       0.0000     
 --------------------------------------------------------------------------------------------------------------------------------------------------------------------------------------------------------



 LAK-1 PACKAGE - SUMMARY OF FLOWS FOR EACH CONTROL VOLUME   PERIOD      1   STEP        1
 -----------------------------------------------------------------------------------------------------------------------------------------------------------------------------------
                                                                                                                                                                          PERCENT   
   NUMBER       GWF        RAINFALL   EVAPORATION     RUNOFF     EXT INFLOW   WITHDRAWAL  EXT OUTFLOW    STORAGE      CONSTANT     FROM MVR      TO MVR      IN - OUT    DIFFERENCE 
 -----------------------------------------------------------------------------------------------------------------------------------------------------------------------------------
     1      -4.0980       5.0000      -1.0000       1.5000       0.0000       0.0000       0.0000       0.0000       0.0000       31.227      -32.629       3.41413E-08  9.04954E-08
     2       7.3083       3.6000      -3.3000       3.0000       0.0000      -0.12000     -1.77051E-07  0.0000       0.0000       175.90      -186.39       1.87162E-07  9.86040E-08
 -----------------------------------------------------------------------------------------------------------------------------------------------------------------------------------



 WATER MOVER PACKAGE (MVR) FLOW RATES   PERIOD      1   STEP        1
 --------------------------------------------------------------------------------------------------------------------------
                                               PROVIDER  AVAILABLE   PROVIDED                                     RECEIVER 
   NUMBER           PROVIDER LOCATION             ID        RATE       RATE            RECEIVER LOCATION             ID    
 --------------------------------------------------------------------------------------------------------------------------
     1                  E13/SFR-1                 23      31.2       31.2                  E13/LAK-1                 1     
     2                  E13/LAK-1                 1       32.6       32.6                  E13/SFR-1                 24    
     3                  E13/SFR-1                 29      176.       176.                  E13/LAK-1                 2     
     4                  E13/LAK-1                 2       186.       186.                  E13/SFR-1                 30    
     5                  E13/UZF-1                 1       0.00       0.00                  E13/SFR-1                 1     
     6                  E13/UZF-1                 2       0.00       0.00                  E13/SFR-1                 2     
     7                  E13/UZF-1                 3       0.00       0.00                  E13/SFR-1                 2     
     8                  E13/UZF-1                 4       0.00       0.00                  E13/SFR-1                 2     
     9                  E13/UZF-1                 5       0.00       0.00                  E13/SFR-1                 3     
     10                 E13/UZF-1                 6       0.00       0.00                  E13/SFR-1                 11    
     11                 E13/UZF-1                 7       0.00       0.00                  E13/SFR-1                 12    
     12                 E13/UZF-1                 8       0.00       0.00                  E13/SFR-1                 12    
     13                 E13/UZF-1                 9       0.00       0.00                  E13/SFR-1                 2     
     14                 E13/UZF-1                 10      0.00       0.00                  E13/SFR-1                 3     
     15                 E13/UZF-1                 11      0.00       0.00                  E13/SFR-1                 4     
     16                 E13/UZF-1                 12      0.00       0.00                  E13/SFR-1                 10    
     17                 E13/UZF-1                 13      0.00       0.00                  E13/SFR-1                 11    
     18                 E13/UZF-1                 14      0.00       0.00                  E13/SFR-1                 12    
     19                 E13/UZF-1                 15      0.00       0.00                  E13/SFR-1                 13    
     20                 E13/UZF-1                 16      0.00       0.00                  E13/LAK-1                 2     
     21                 E13/UZF-1                 17      0.00       0.00                  E13/LAK-1                 2     
     22                 E13/UZF-1                 18      0.00       0.00                  E13/SFR-1                 3     
     23                 E13/UZF-1                 19      0.00       0.00                  E13/SFR-1                 4     
     24                 E13/UZF-1                 20      0.00       0.00                  E13/SFR-1                 5     
     25                 E13/UZF-1                 21      0.00       0.00                  E13/SFR-1                 6     
     26                 E13/UZF-1                 22      0.00       0.00                  E13/SFR-1                 6     
     27                 E13/UZF-1                 23      0.00       0.00                  E13/SFR-1                 13    
     28                 E13/UZF-1                 24      0.00       0.00                  E13/SFR-1                 17    
     29                 E13/UZF-1                 25      0.00       0.00                  E13/LAK-1                 2     
     30                 E13/UZF-1                 26      0.00       0.00                  E13/LAK-1                 2     
     31                 E13/UZF-1                 27      0.00       0.00                  E13/LAK-1                 2     
     32                 E13/UZF-1                 28      0.00       0.00                  E13/LAK-1                 2     
     33                 E13/UZF-1                 29      0.00       0.00                  E13/SFR-1                 5     
     34                 E13/UZF-1                 30      0.00       0.00                  E13/SFR-1                 6     
     35                 E13/UZF-1                 31      0.00       0.00                  E13/SFR-1                 6     
     36                 E13/UZF-1                 32      0.00       0.00                  E13/SFR-1                 14    
     37                 E13/UZF-1                 33      0.00       0.00                  E13/SFR-1                 17    
     38                 E13/UZF-1                 34      0.00       0.00                  E13/SFR-1                 16    
     39                 E13/UZF-1                 35      0.00       0.00                  E13/LAK-1                 2     
     40                 E13/UZF-1                 36      0.00       0.00                  E13/LAK-1                 2     
     41                 E13/UZF-1                 37      0.00       0.00                  E13/LAK-1                 2     
     42                 E13/UZF-1                 38      0.00       0.00                  E13/LAK-1                 2     
     43                 E13/UZF-1                 39      0.00       0.00                  E13/LAK-1                 2     
     44                 E13/UZF-1                 40      0.00       0.00                  E13/SFR-1                 7     
     45                 E13/UZF-1                 41      0.00       0.00                  E13/SFR-1                 7     
     46                 E13/UZF-1                 42      0.00       0.00                  E13/SFR-1                 19    
     47                 E13/UZF-1                 43      0.00       0.00                  E13/SFR-1                 17    
     48                 E13/UZF-1                 44      0.00       0.00                  E13/SFR-1                 16    
     49                 E13/UZF-1                 45      0.00       0.00                  E13/LAK-1                 2     
     50                 E13/UZF-1                 46      0.00       0.00                  E13/LAK-1                 2     
     51                 E13/UZF-1                 47      0.00       0.00                  E13/LAK-1                 2     
     52                 E13/UZF-1                 48      0.00       0.00                  E13/LAK-1                 2     
     53                 E13/UZF-1                 49      0.00       0.00                  E13/LAK-1                 2     
     54                 E13/UZF-1                 50      0.00       0.00                  E13/SFR-1                 8     
     55                 E13/UZF-1                 51      0.00       0.00                  E13/SFR-1                 20    
     56                 E13/UZF-1                 52      0.00       0.00                  E13/SFR-1                 20    
     57                 E13/UZF-1                 53      0.00       0.00                  E13/SFR-1                 20    
     58                 E13/UZF-1                 54      0.00       0.00                  E13/LAK-1                 2     
     59                 E13/UZF-1                 55      0.00       0.00                  E13/LAK-1                 2     
     60                 E13/UZF-1                 56      0.00       0.00                  E13/LAK-1                 2     
     61                 E13/UZF-1                 57      0.00       0.00                  E13/LAK-1                 2     
     62                 E13/UZF-1                 58      0.00       0.00                  E13/SFR-1                 9     
     63                 E13/UZF-1                 59      0.00       0.00                  E13/SFR-1                 21    
     64                 E13/UZF-1                 60      0.00       0.00                  E13/SFR-1                 21    
     65                 E13/UZF-1                 61      0.00       0.00                  E13/SFR-1                 21    
     66                 E13/UZF-1                 62      0.00       0.00                  E13/LAK-1                 2     
     67                 E13/UZF-1                 63      0.00       0.00                  E13/LAK-1                 2     
     68                 E13/UZF-1                 64      0.00       0.00                  E13/LAK-1                 2     
     69                 E13/UZF-1                 65      0.00       0.00                  E13/LAK-1                 2     
     70                 E13/UZF-1                 66      0.00       0.00                  E13/SFR-1                 23    
     71                 E13/UZF-1                 67      0.00       0.00                  E13/LAK-1                 1     
     72                 E13/UZF-1                 68      0.00       0.00                  E13/LAK-1                 1     
     73                 E13/UZF-1                 69      0.00       0.00                  E13/LAK-1                 1     
     74                 E13/UZF-1                 70      0.00       0.00                  E13/LAK-1                 2     
     75                 E13/UZF-1                 71      0.00       0.00                  E13/LAK-1                 2     
     76                 E13/UZF-1                 72      0.00       0.00                  E13/LAK-1                 2     
     77                 E13/UZF-1                 73      0.00       0.00                  E13/LAK-1                 2     
     78                 E13/UZF-1                 74      0.00       0.00                  E13/LAK-1                 1     
     79                 E13/UZF-1                 75      0.00       0.00                  E13/LAK-1                 1     
     80                 E13/UZF-1                 76      0.00       0.00                  E13/LAK-1                 1     
     81                 E13/UZF-1                 77      0.00       0.00                  E13/LAK-1                 2     
     82                 E13/UZF-1                 78      0.00       0.00                  E13/SFR-1                 9     
     83                 E13/UZF-1                 79      0.00       0.00                  E13/LAK-1                 1     
     84                 E13/UZF-1                 80      0.00       0.00                  E13/SFR-1                 31    
     85                 E13/UZF-1                 81      0.00       0.00                  E13/SFR-1                 30    
     86                 E13/UZF-1                 82      0.00       0.00                  E13/SFR-1                 9     
     87                 E13/UZF-1                 83      0.00       0.00                  E13/SFR-1                 24    
     88                 E13/UZF-1                 84      0.00       0.00                  E13/LAK-1                 1     
     89                 E13/UZF-1                 85      0.00       0.00                  E13/LAK-1                 1     
     90                 E13/UZF-1                 86      5.44       5.44                  E13/SFR-1                 31    
     91                 E13/UZF-1                 87      0.00       0.00                  E13/SFR-1                 30    
     92                 E13/UZF-1                 88      0.00       0.00                  E13/SFR-1                 29    
     93                 E13/UZF-1                 89      0.00       0.00                  E13/SFR-1                 28    
     94                 E13/UZF-1                 90      0.00       0.00                  E13/SFR-1                 27    
     95                 E13/UZF-1                 91      0.00       0.00                  E13/SFR-1                 26    
     96                 E13/UZF-1                 92      0.00       0.00                  E13/SFR-1                 30    
     97                 E13/UZF-1                 93      0.00       0.00                  E13/LAK-1                 2     
     98                 E13/UZF-1                 94      0.00       0.00                  E13/SFR-1                 28    
     99                 E13/UZF-1                 95      0.00       0.00                  E13/SFR-1                 27    
    100                 E13/UZF-1                 96      0.00       0.00                  E13/SFR-1                 26    
    101                 E13/UZF-1                 97      0.00       0.00                  E13/LAK-1                 2     
    102                 E13/UZF-1                 98      0.00       0.00                  E13/LAK-1                 2     
    103                 E13/UZF-1                 99      0.00       0.00                  E13/LAK-1                 2     
    104                 E13/UZF-1                100      0.00       0.00                  E13/LAK-1                 2     
    105                 E13/WEL-1                 1       0.00       0.00                  E13/UZF-1                 38    
    106                 E13/WEL-1                 2       0.00       0.00                  E13/UZF-1                 39    
    107                 E13/WEL-1                 3       0.00       0.00                  E13/UZF-1                 48    
    108                 E13/WEL-1                 4       0.00       0.00                  E13/UZF-1                 49    
    109                 E13/WEL-1                 5       0.00       0.00                  E13/UZF-1                 56    
    110                 E13/WEL-1                 6       0.00       0.00                  E13/UZF-1                 57    
    111                 E13/WEL-1                 7       0.00       0.00                  E13/UZF-1                 64    
    112                 E13/WEL-1                 8       0.00       0.00                  E13/UZF-1                 65    
    113                 E13/WEL-1                 9       0.00       0.00                  E13/UZF-1                 72    
    114                 E13/WEL-1                 10      0.00       0.00                  E13/UZF-1                 73    
 --------------------------------------------------------------------------------------------------------------------------



 SFR PACKAGE (SFR-1) STAGES FOR EACH CONTROL VOLUME   PERIOD      1   STEP        1
 ------------------------------------------------------------------------------------------------------------------------------------------------------
                                                                                                                               STREAMBED    STREAMBED  
 NAME                                       NUMBER   CELLID                  STAGE        DEPTH        WIDTH       GWF HEAD   CONDUCTANCE    GRADIENT  
 ------------------------------------------------------------------------------------------------------------------------------------------------------
 ALLREACHES                                   1      (1,1,1)               1094.3       1.2349       12.000       1019.5       5.40000E-02  1.4116     
 ALLREACHES                                   2      (1,2,2)               1089.3       1.2262       12.000       1019.8       8.40000E-02  1.4087     
 ALLREACHES                                   3      (1,3,3)               1083.6       1.2163       12.000       1019.4       7.20000E-02  1.4054     
 ALLREACHES                                   4      (1,3,4)               1078.6       1.2075       12.000       1019.3       6.66000E-02  1.4025     
 ALLREACHES                                   5      (1,4,5)               1072.8       0.84113      12.000       1019.3       7.80000E-02  1.2804     
 ALLREACHES                                   6      (1,5,6)               1067.3       0.83133      12.000       1019.0       6.00000E-02  1.2771     
 ALLREACHES                                   7      (1,6,6)               1062.6       0.82276      12.000       1018.9       6.00000E-02  1.2743     
 ALLREACHES                                   8      (1,7,6)               1057.9       0.81415      12.000       1018.8       6.00000E-02  1.2714     
 ALLREACHES                                   9      (1,8,6)               1053.2       0.80551      12.000       1018.7       6.00000E-02  1.2685     
 ALLREACHES                                   10     (1,3,5)               1074.6       0.93630      9.6364       1018.7       7.22727E-03  1.4681     
 ALLREACHES                                   11     (1,3,6)               1071.9       0.98022      8.9091       1018.7       6.68182E-03  1.4901     
 ALLREACHES                                   12     (1,3,7)               1069.3       1.0277       8.2182       1018.6       5.54727E-03  1.5139     
 ALLREACHES                                   13     (1,4,8)               1066.5       1.0884       7.4545       1018.5       6.70909E-03  1.5442     
 ALLREACHES                                   14     (1,5,8)               1063.6       1.1639       6.6545       1018.5       4.99091E-03  1.5819     
 ALLREACHES                                   15     (1,6,8)               1061.8       1.2200       6.1455       1019.1       1.84364E-03  1.6100     
 ALLREACHES                                   16     (1,5,10)              1078.4       0.63679      10.000       1018.8       2.50000E-02  1.2123     
 ALLREACHES                                   17     (1,5,9)               1071.5       0.63155      10.000       1019.0       5.00000E-02  1.2105     
 ALLREACHES                                   18     (1,6,8)               1063.8       0.62558      10.000       1019.1       3.50000E-02  1.2085     
 ALLREACHES                                   19     (1,6,8)               1060.0       1.2846       10.000       1019.1       4.00000E-02  1.4282     
 ALLREACHES                                   20     (1,7,7)               1056.9       1.2770       10.000       1018.8       5.00000E-02  1.4257     
 ALLREACHES                                   21     (1,8,7)               1054.1       1.2697       10.000       1018.6       3.50000E-02  1.4232     
 ALLREACHES                                   22     (1,8,6)               1052.1       1.2646       10.000       1018.7       2.50000E-02  1.4215     
 ALLREACHES                                   23     (1,9,6)               1046.6       1.1396       12.000       1018.2       6.00000E-02  1.3799     
 ALLREACHES                                   24     (1,12,7)              1037.7       1.2507       12.000       1018.7       6.00000E-03  1.4169     
 ALLREACHES                                   25     (1,13,7)              1030.2       1.2501       12.000       1021.5       6.60000E-03  1.4167     
 ALLREACHES                                   26     (1,14,9)              1034.8       1.4870       60.000       1026.3       0.60000      1.4957     
 ALLREACHES                                   27     (1,13,8)              1031.5       1.4708       60.000       1023.4       0.60000      1.4903     
 ALLREACHES                                   28     (1,13,7)              1028.1       1.4546       60.000       1021.5       0.60000      1.4849     
 ALLREACHES                                   29     (1,13,6)              1013.9       0.90773      60.000       1016.2       0.60000     -0.76400    
 ALLREACHES                                   30     (1,13,2)              998.29       1.4168       60.000       1002.9       0.60000     -1.5460     
 ALLREACHES                                   31     (1,13,1)              993.33       1.4505       60.000       997.00       0.36000     -1.2258     
 ------------------------------------------------------------------------------------------------------------------------------------------------------



 LAK PACKAGE (LAK-1) STAGES FOR EACH CONTROL VOLUME   PERIOD      1   STEP        1
 --------------------------------------------------------------
   NUMBER      STAGE     SURFACE AREA WETTED AREA     VOLUME   
 --------------------------------------------------------------
     1       1041.3       1.00000E+08  1.01383E+08  4.27514E+09
     2       1001.4       3.00000E+08  3.01395E+08  5.29815E+09
 --------------------------------------------------------------



 HEAD WILL BE SAVED ON UNIT 1026 AT END OF TIME STEP    1, STRESS PERIOD    1


  SFR-1 BUDGET FOR ENTIRE MODEL AT END OF TIME STEP    1, STRESS PERIOD   1
  ------------------------------------------------------------------------------

     CUMULATIVE SFR-1      L**3       RATES FOR THIS TIME STEP      L**3/T
     ------------------                 ------------------------

           IN:                                      IN:
           ---                                      ---
                 GWF =    14406392.0227                   GWF =           5.4819
            RAINFALL =           0.0000              RAINFALL =           0.0000
         EVAPORATION =           0.0000           EVAPORATION =           0.0000
              RUNOFF =           0.0000                RUNOFF =           0.0000
          EXT-INFLOW =   486180000.0000            EXT-INFLOW =         185.0000
         EXT-OUTFLOW =           0.0000           EXT-OUTFLOW =           0.0000
             STORAGE =           0.0000               STORAGE =           0.0000
            FROM-MVR =   589887185.3700              FROM-MVR =         224.4624
              TO-MVR =           0.0000                TO-MVR =           0.0000

            TOTAL IN =  1090473577.3927              TOTAL IN =         414.9443

          OUT:                                     OUT:
          ----                                     ----
                 GWF =    31204682.3949                   GWF =          11.8739
            RAINFALL =           0.0000              RAINFALL =           0.0000
         EVAPORATION =           0.0000           EVAPORATION =           0.0000
              RUNOFF =           0.0000                RUNOFF =           0.0000
          EXT-INFLOW =           0.0000            EXT-INFLOW =           0.0000
         EXT-OUTFLOW =   514930307.2297           EXT-OUTFLOW =         195.9400
             STORAGE =           0.0000               STORAGE =           0.0000
            FROM-MVR =           0.0000              FROM-MVR =           0.0000
              TO-MVR =   544338587.7681                TO-MVR =         207.1304

           TOTAL OUT =  1090473577.3927             TOTAL OUT =         414.9443

            IN - OUT =           0.0000              IN - OUT =       5.6843E-14

 PERCENT DISCREPANCY =           0.00     PERCENT DISCREPANCY =           0.00



  LAK-1 BUDGET FOR ENTIRE MODEL AT END OF TIME STEP    1, STRESS PERIOD   1
  ------------------------------------------------------------------------------

     CUMULATIVE LAK-1      L**3       RATES FOR THIS TIME STEP      L**3/T
     ------------------                 ------------------------

           IN:                                      IN:
           ---                                      ---
                 GWF =    19206292.9625                   GWF =           7.3083
            RAINFALL =    22600800.0000              RAINFALL =           8.6000
         EVAPORATION =           0.0000           EVAPORATION =           0.0000
              RUNOFF =    11826000.0000                RUNOFF =           4.5000
          EXT-INFLOW =           0.0000            EXT-INFLOW =           0.0000
          WITHDRAWAL =           0.0000            WITHDRAWAL =           0.0000
         EXT-OUTFLOW =           0.0000           EXT-OUTFLOW =           0.0000
             STORAGE =           0.0000               STORAGE =           0.0000
            CONSTANT =           0.0000              CONSTANT =           0.0000
            FROM-MVR =   544338587.7681              FROM-MVR =         207.1304
              TO-MVR =           0.0000                TO-MVR =           0.0000

            TOTAL IN =   597971680.7306              TOTAL IN =         227.5387

          OUT:                                     OUT:
          ----                                     ----
                 GWF =    10769454.0884                   GWF =           4.0980
            RAINFALL =           0.0000              RAINFALL =           0.0000
[...]
    105                 E13/WEL-1                 1       0.00       0.00                  E13/UZF-1                 38    
    106                 E13/WEL-1                 2       0.00       0.00                  E13/UZF-1                 39    
    107                 E13/WEL-1                 3       0.00       0.00                  E13/UZF-1                 48    
    108                 E13/WEL-1                 4       0.00       0.00                  E13/UZF-1                 49    
    109                 E13/WEL-1                 5       0.00       0.00                  E13/UZF-1                 56    
    110                 E13/WEL-1                 6       0.00       0.00                  E13/UZF-1                 57    
    111                 E13/WEL-1                 7       0.00       0.00                  E13/UZF-1                 64    
    112                 E13/WEL-1                 8       0.00       0.00                  E13/UZF-1                 65    
    113                 E13/WEL-1                 9       0.00       0.00                  E13/UZF-1                 72    
    114                 E13/WEL-1                 10      0.00       0.00                  E13/UZF-1                 73    
 --------------------------------------------------------------------------------------------------------------------------



 SFR PACKAGE (SFR-1) STAGES FOR EACH CONTROL VOLUME   PERIOD     24   STEP       15
 ------------------------------------------------------------------------------------------------------------------------------------------------------
                                                                                                                               STREAMBED    STREAMBED  
 NAME                                       NUMBER   CELLID                  STAGE        DEPTH        WIDTH       GWF HEAD   CONDUCTANCE    GRADIENT  
 ------------------------------------------------------------------------------------------------------------------------------------------------------
 ALLREACHES                                   1      (1,1,1)               1094.3       1.2349       12.000       1022.7       5.40000E-02  1.4116     
 ALLREACHES                                   2      (1,2,2)               1089.3       1.2262       12.000       1023.8       8.40000E-02  1.4087     
 ALLREACHES                                   3      (1,3,3)               1083.6       1.2163       12.000       1024.4       7.20000E-02  1.4054     
 ALLREACHES                                   4      (1,3,4)               1078.6       1.2075       12.000       1024.5       6.66000E-02  1.4025     
 ALLREACHES                                   5      (1,4,5)               1072.8       0.84113      12.000       1024.5       7.80000E-02  1.2804     
 ALLREACHES                                   6      (1,5,6)               1067.3       0.83133      12.000       1024.0       6.00000E-02  1.2771     
 ALLREACHES                                   7      (1,6,6)               1062.6       0.82276      12.000       1021.4       6.00000E-02  1.2743     
 ALLREACHES                                   8      (1,7,6)               1057.9       0.81415      12.000       1021.3       6.00000E-02  1.2714     
 ALLREACHES                                   9      (1,8,6)               1053.2       0.80551      12.000       1021.4       6.00000E-02  1.2685     
 ALLREACHES                                   10     (1,3,5)               1074.6       0.93630      9.6364       1023.9       7.22727E-03  1.4681     
 ALLREACHES                                   11     (1,3,6)               1071.9       0.98022      8.9091       1024.4       6.68182E-03  1.4901     
 ALLREACHES                                   12     (1,3,7)               1069.3       1.0277       8.2182       1027.4       5.54727E-03  1.5139     
 ALLREACHES                                   13     (1,4,8)               1066.5       1.0884       7.4545       1022.4       6.70909E-03  1.5442     
 ALLREACHES                                   14     (1,5,8)               1063.6       1.1639       6.6545       1021.0       4.99091E-03  1.5819     
 ALLREACHES                                   15     (1,6,8)               1061.8       1.2200       6.1455       1021.6       1.84364E-03  1.6100     
 ALLREACHES                                   16     (1,5,10)              1078.4       0.63679      10.000       1023.2       2.50000E-02  1.2123     
 ALLREACHES                                   17     (1,5,9)               1071.5       0.63155      10.000       1023.6       5.00000E-02  1.2105     
 ALLREACHES                                   18     (1,6,8)               1063.8       0.62558      10.000       1021.6       3.50000E-02  1.2085     
 ALLREACHES                                   19     (1,6,8)               1060.0       1.2846       10.000       1021.6       4.00000E-02  1.4282     
 ALLREACHES                                   20     (1,7,7)               1056.9       1.2770       10.000       1021.3       5.00000E-02  1.4257     
 ALLREACHES                                   21     (1,8,7)               1054.1       1.2697       10.000       1021.3       3.50000E-02  1.4232     
 ALLREACHES                                   22     (1,8,6)               1052.1       1.2646       10.000       1021.4       2.50000E-02  1.4215     
 ALLREACHES                                   23     (1,9,6)               1046.6       1.1396       12.000       1021.1       6.00000E-02  1.3799     
 ALLREACHES                                   24     (1,12,7)              1037.7       1.2720       12.000       1023.1       6.00000E-03  1.4240     
 ALLREACHES                                   25     (1,13,7)              1030.2       1.2714       12.000       1025.1       6.60000E-03  1.4238     
 ALLREACHES                                   26     (1,14,9)              1034.8       1.4870       60.000       1029.9       0.60000      1.4957     
 ALLREACHES                                   27     (1,13,8)              1031.5       1.4718       60.000       1027.6       0.60000      1.3068     
 ALLREACHES                                   28     (1,13,7)              1028.1       1.4592       60.000       1025.1       0.60000      1.0093     
 ALLREACHES                                   29     (1,13,6)              1013.9       0.91696      60.000       1019.1       0.60000     -1.7201     
 ALLREACHES                                   30     (1,13,2)              998.33       1.4532       60.000       1004.0       0.60000     -1.8836     
 ALLREACHES                                   31     (1,13,1)              993.37       1.4975       60.000       997.01       0.36000     -1.2126     
 ------------------------------------------------------------------------------------------------------------------------------------------------------



 LAK PACKAGE (LAK-1) STAGES FOR EACH CONTROL VOLUME   PERIOD     24   STEP       15
 --------------------------------------------------------------
   NUMBER      STAGE     SURFACE AREA WETTED AREA     VOLUME   
 --------------------------------------------------------------
     1       1041.3       1.00000E+08  1.01383E+08  4.27727E+09
     2       1001.4       3.00000E+08  3.01643E+08  5.30726E+09
 --------------------------------------------------------------



 HEAD WILL BE SAVED ON UNIT 1026 AT END OF TIME STEP   15, STRESS PERIOD   24


  SFR-1 BUDGET FOR ENTIRE MODEL AT END OF TIME STEP   15, STRESS PERIOD  24
  ------------------------------------------------------------------------------

     CUMULATIVE SFR-1      L**3       RATES FOR THIS TIME STEP      L**3/T
     ------------------                 ------------------------

           IN:                                      IN:
           ---                                      ---
                 GWF =   414947452.5476                   GWF =           7.7962
            RAINFALL =           0.0000              RAINFALL =           0.0000
         EVAPORATION =           0.0000           EVAPORATION =           0.0000
              RUNOFF =           0.0000                RUNOFF =           0.0000
          EXT-INFLOW = 11668320000.0000            EXT-INFLOW =         185.0000
         EXT-OUTFLOW =       1.7046E-02           EXT-OUTFLOW =           0.0000
             STORAGE =           0.0000               STORAGE =           0.0000
            FROM-MVR = 14393886331.4097              FROM-MVR =         235.4647
              TO-MVR =           0.0000                TO-MVR =           0.0000

            TOTAL IN = 26477153783.9744              TOTAL IN =         428.2610

          OUT:                                     OUT:
          ----                                     ----
                 GWF =   736279485.9164                   GWF =          10.6880
            RAINFALL =           0.0000              RAINFALL =           0.0000
         EVAPORATION =           0.0000           EVAPORATION =           0.0000
              RUNOFF =           0.0000                RUNOFF =           0.0000
          EXT-INFLOW =           0.0000            EXT-INFLOW =           0.0000
         EXT-OUTFLOW = 12603741429.0657           EXT-OUTFLOW =         206.6037
             STORAGE =           0.0000               STORAGE =           0.0000
            FROM-MVR =           0.0000              FROM-MVR =           0.0000
              TO-MVR = 13137132868.9922                TO-MVR =         210.9693

           TOTAL OUT = 26477153783.9743             TOTAL OUT =         428.2610

            IN - OUT =       1.5259E-05              IN - OUT =       5.6843E-14

 PERCENT DISCREPANCY =           0.00     PERCENT DISCREPANCY =           0.00



  LAK-1 BUDGET FOR ENTIRE MODEL AT END OF TIME STEP   15, STRESS PERIOD  24
  ------------------------------------------------------------------------------

     CUMULATIVE LAK-1      L**3       RATES FOR THIS TIME STEP      L**3/T
     ------------------                 ------------------------

           IN:                                      IN:
           ---                                      ---
                 GWF =   528422713.2951                   GWF =          10.2264
            RAINFALL =   542419200.0000              RAINFALL =           8.6000
         EVAPORATION =           0.0000           EVAPORATION =           0.0000
              RUNOFF =   283824000.0000                RUNOFF =           4.5000
          EXT-INFLOW =           0.0000            EXT-INFLOW =           0.0000
          WITHDRAWAL =           0.0000            WITHDRAWAL =           0.0000
         EXT-OUTFLOW =           1.5103           EXT-OUTFLOW =           0.0000
             STORAGE =      334885.2259               STORAGE =           0.0000
            CONSTANT =           0.0000              CONSTANT =           0.0000
            FROM-MVR = 13137132868.9922              FROM-MVR =         210.9693
              TO-MVR =           0.0000                TO-MVR =           0.0000

            TOTAL IN = 14492133669.0236              TOTAL IN =         234.2957

          OUT:                                     OUT:
          ----                                     ----
                 GWF =   241091316.3114                   GWF =           3.1475
            RAINFALL =           0.0000              RAINFALL =           0.0000
         EVAPORATION =   271209600.0000           EVAPORATION =           4.3000
              RUNOFF =           0.0000                RUNOFF =           0.0000
          EXT-INFLOW =           0.0000            EXT-INFLOW =           0.0000
          WITHDRAWAL =     7568640.0000            WITHDRAWAL =           0.1200
         EXT-OUTFLOW =           6.1374           EXT-OUTFLOW =       1.9406E-07
             STORAGE =    11578383.3750               STORAGE =       3.8301E-02
            CONSTANT =           0.0000              CONSTANT =           0.0000
            FROM-MVR =           0.0000              FROM-MVR =           0.0000
              TO-MVR = 13960685723.4686                TO-MVR =         226.6899

           TOTAL OUT = 14492133669.2924             TOTAL OUT =         234.2957

            IN - OUT =          -0.2688              IN - OUT =      -3.6174E-07

 PERCENT DISCREPANCY =          -0.00     PERCENT DISCREPANCY =          -0.00



  UZF-1 BUDGET FOR ENTIRE MODEL AT END OF TIME STEP   15, STRESS PERIOD  24
  ------------------------------------------------------------------------------

     CUMULATIVE UZF-1      L**3       RATES FOR THIS TIME STEP      L**3/T
     ------------------                 ------------------------

           IN:                                      IN:
           ---                                      ---
                 GWF =           0.0000                   GWF =           0.0000
        INFILTRATION =  6044703271.2000          INFILTRATION =           7.6500
             REJ-INF =           0.0000               REJ-INF =           0.0000
                UZET =           0.0000                  UZET =           0.0000
             STORAGE =  3713655493.6848               STORAGE =          66.1499
            FROM-MVR =   201042000.0000              FROM-MVR =           0.0000
      REJ-INF-TO-MVR =           0.0000        REJ-INF-TO-MVR =           0.0000

            TOTAL IN =  9959400764.8848              TOTAL IN =          73.7999

          OUT:                                     OUT:
          ----                                     ----
                 GWF =  2902678894.9580                   GWF =          47.8159
        INFILTRATION =           0.0000          INFILTRATION =           0.0000
             REJ-INF =          64.5683               REJ-INF =           0.0000
                UZET =  1342156718.2027                  UZET =          22.8290
             STORAGE =  5691603470.5469               STORAGE =           3.1050
            FROM-MVR =           0.0000              FROM-MVR =           0.0000
      REJ-INF-TO-MVR =    22961482.3500        REJ-INF-TO-MVR =       5.0000E-02

           TOTAL OUT =  9959400630.6259             TOTAL OUT =          73.7999

            IN - OUT =         134.2589              IN - OUT =       2.2800E-06

 PERCENT DISCREPANCY =           0.00     PERCENT DISCREPANCY =           0.00



  WATER MOVER BUDGET FOR ENTIRE MODEL AT END OF TIME STEP   15, STRESS PERIOD  24
  ------------------------------------------------------------------------------

     CUMULATIVE WATER MOVER      L**3       RATES FOR THIS TIME STEP      L**3/T
     ------------------                 ------------------------

           IN:                                      IN:
           ---                                      ---
               UZF-1 =   433200607.9411                 UZF-1 =           8.7749
               SFR-1 = 13137132868.9922                 SFR-1 =         210.9693
               LAK-1 = 13960685723.4686                 LAK-1 =         226.6899
               WEL-1 =   201042000.0000                 WEL-1 =           0.0000

            TOTAL IN = 27732061200.4020              TOTAL IN =         446.4341

          OUT:                                     OUT:
          ----                                     ----
               UZF-1 =   201042000.0000                 UZF-1 =           0.0000
               SFR-1 = 14393886331.4097                 SFR-1 =         235.4647
               LAK-1 = 13137132868.9922                 LAK-1 =         210.9693
               WEL-1 =           0.0000                 WEL-1 =           0.0000

           TOTAL OUT = 27732061200.4020             TOTAL OUT =         446.4341

            IN - OUT =       7.6294E-06              IN - OUT =           0.0000

 PERCENT DISCREPANCY =           0.00     PERCENT DISCREPANCY =           0.00



  VOLUME BUDGET FOR ENTIRE MODEL AT END OF TIME STEP   15, STRESS PERIOD  24
  ---------------------------------------------------------------------------------------------------

     CUMULATIVE VOLUME      L**3       RATES FOR THIS TIME STEP      L**3/T          PACKAGE NAME    
     ------------------                 ------------------------                     ----------------

           IN:                                      IN:
           ---                                      ---
              STO-SS =     1201749.2288                STO-SS =       4.7755E-02     STORAGE                          
              STO-SY =   362451642.5711                STO-SY =           9.1394     STORAGE                          
                 WEL =           0.0000                   WEL =           0.0000     WEL-1                            
          WEL-TO-MVR =           0.0000            WEL-TO-MVR =           0.0000     WEL-1                            
                 GHB =    42485152.3053                   GHB =           0.5736     GHB_0                            
                 SFR =   736279479.9129                   SFR =          10.6880     SFR-1                            
                 LAK =   241091316.3114                   LAK =           3.1475     LAK-1                            
           UZF-GWRCH =  2902678894.9580             UZF-GWRCH =          47.8159     UZF-1                            
             UZF-GWD =           0.0000               UZF-GWD =           0.0000     UZF-1                            
      UZF-GWD TO-MVR =           0.0000        UZF-GWD TO-MVR =           0.0000     UZF-1                            
            UZF-GWET =           0.0000              UZF-GWET =           0.0000     UZF-1                            

            TOTAL IN =  4286188235.2875              TOTAL IN =          71.4121

          OUT:                                     OUT:
          ----                                     ----
              STO-SS =    12628615.9026                STO-SS =           0.1223     STORAGE                          
              STO-SY =  2659322006.3978                STO-SY =          43.4672     STORAGE                          
                 WEL =           0.0000                   WEL =           0.0000     WEL-1                            
          WEL-TO-MVR =   201042000.0000            WEL-TO-MVR =           0.0000     WEL-1                            
                 GHB =    21584604.0567                   GHB =           0.3424     GHB_0                            
                 SFR =   414947774.8513                   SFR =           7.7962     SFR-1                            
                 LAK =   528422713.2951                   LAK =          10.2264     LAK-1                            
           UZF-GWRCH =           0.0000             UZF-GWRCH =           0.0000     UZF-1                            
             UZF-GWD =         117.5329               UZF-GWD =           0.0000     UZF-1                            
      UZF-GWD TO-MVR =   410239125.5911        UZF-GWD TO-MVR =           8.7249     UZF-1                            
            UZF-GWET =    37974163.2635              UZF-GWET =           0.7325     UZF-1                            

           TOTAL OUT =  4286161120.8911             TOTAL OUT =          71.4120

            IN - OUT =       27114.3965              IN - OUT =       1.7670E-04

 PERCENT DISCREPANCY =           0.00     PERCENT DISCREPANCY =           0.00




         TIME SUMMARY AT END OF TIME STEP   15 IN STRESS PERIOD   24
                    SECONDS     MINUTES      HOURS       DAYS        YEARS
                    -----------------------------------------------------------
   TIME STEP LENGTH 1.75200E+05  2920.0      48.667      2.0278     5.55175E-03
 STRESS PERIOD TIME 2.62800E+06  43800.      730.00      30.417     8.32763E-02
         TOTAL TIME 6.30720E+07 1.05120E+06  17520.      730.00      1.9986    


end timestep

