                                   MODFLOW 6
                U.S. GEOLOGICAL SURVEY MODULAR HYDROLOGIC MODEL
                            VERSION 6.5.0 05/23/2024

   MODFLOW 6 compiled Jun 21 2024 02:57:23 with Intel(R) Fortran Intel(R) 64
   Compiler Classic for applications running on Intel(R) 64, Version 2021.7.0
                             Build 20220726_000000

This software has been approved for release by the U.S. Geological 
Survey (USGS). Although the software has been subjected to rigorous 
review, the USGS reserves the right to update the software as needed 
pursuant to further analysis and review. No warranty, expressed or 
implied, is made by the USGS or the U.S. Government as to the 
functionality of the software and related material nor shall the 
fact of release constitute any such warranty. Furthermore, the 
software is released on condition that neither the USGS nor the U.S. 
Government shall be held liable for any damages resulting from its 
authorized or unauthorized use. Also refer to the USGS Water 
Resources Software User Rights Notice for complete use, copyright, 
and distribution information.


As a work of the United States Government, this USGS product is 
in the public domain within the United States. You can copy, 
modify, distribute, and perform the work, even for commercial 
purposes, all without asking permission. Additionally, USGS 
waives copyright and related rights in the work worldwide 
through CC0 1.0 Universal Public Domain Dedication 
(https://creativecommons.org/publicdomain/zero/1.0/).

The following GNU Lesser General Public License (LGPL) libraries
are used in this USGS product:

    SPARSKIT version 2.0
      ilut, luson, and qsplit 
      (https://www-users.cse.umn.edu/~saad/software/SPARSKIT/)

    RCM - Reverse Cuthill McKee Ordering
      (https://people.math.sc.edu/Burkardt/f_src/rcm/rcm.html)

    BLAS - Basic Linear Algebra Subprograms Level 1
      (https://people.math.sc.edu/Burkardt/f_src/blas1_d/blas1_d.html)

    SPARSEKIT - Sparse Matrix Utility Package
      amux, dperm, dvperm, rperm, and cperm
      (https://people.sc.fsu.edu/~jburkardt/f77_src/sparsekit/sparsekit.html)

The following BSD-3 License libraries are used in this USGS product:

    Modern Fortran DAG Library
      Copyright (c) 2018, Jacob Williams
      All rights reserved.
      (https://github.com/jacobwilliams/daglib)

MODFLOW 6 compiler options: /O2 /heap-arrays:0 /fpe:0 /traceback /nologo /fpp
/c /module:win64\mod_mf6\ /object:win64\obj_mf6\

System command used to initiate simulation:
C:\Users\gross.DESKTOP-AIRQM2M\anaconda3\envs\gmdsitut\Scripts\mf6.exe

MODFLOW was compiled using uniform precision.

Real Variables
  KIND: 8
  TINY (smallest non-zero value):    2.225074-308
  HUGE (largest value):    1.797693+308
  PRECISION: 15
  SIZE IN BITS: 64

Integer Variables
  KIND: 4
  HUGE (largest value): 2147483647
  SIZE IN BITS: 32

Long Integer Variables
  KIND: 8
  HUGE (largest value): 9223372036854775807
  SIZE IN BITS: 64

Logical Variables
  KIND: 4
  SIZE IN BITS: 32
 

 OPENED mfsim.nam
 FILE TYPE:NAM6               UNIT 1001   STATUS:OLD                 
 FORMAT:FORMATTED              ACCESS:SEQUENTIAL          
 ACTION:READ                

 # File generated by Flopy version 3.8.2 on 11/12/2025 at 08:12:54.

 OPENED e13.tdis
 FILE TYPE:TDIS6              UNIT 1002   STATUS:OLD                 
 FORMAT:FORMATTED              ACCESS:SEQUENTIAL          
 ACTION:READ                

 # File generated by Flopy version 3.8.2 on 11/12/2025 at 08:12:54.

 OPENED e13.nam
 FILE TYPE:GWF6               UNIT 1003   STATUS:OLD                 
 FORMAT:FORMATTED              ACCESS:SEQUENTIAL          
 ACTION:READ                

 # File generated by Flopy version 3.8.2 on 11/12/2025 at 08:12:54.

 OPENED e13.dis
 FILE TYPE:DIS6               UNIT 1004   STATUS:OLD                 
 FORMAT:FORMATTED              ACCESS:SEQUENTIAL          
 ACTION:READ                

 # File generated by Flopy version 3.8.2 on 11/12/2025 at 08:12:54.

 OPENED e13.npf
 FILE TYPE:NPF6               UNIT 1005   STATUS:OLD                 
 FORMAT:FORMATTED              ACCESS:SEQUENTIAL          
 ACTION:READ                

 # File generated by Flopy version 3.8.2 on 11/12/2025 at 08:12:54.

 OPENED e13.sto
 FILE TYPE:STO6      UNIT 1006   STATUS:OLD                 
 FORMAT:FORMATTED              ACCESS:SEQUENTIAL          
 ACTION:READ                


 OPENED e13.ic
 FILE TYPE:IC6                UNIT 1007   STATUS:OLD                 
 FORMAT:FORMATTED              ACCESS:SEQUENTIAL          
 ACTION:READ                

 # File generated by Flopy version 3.8.2 on 11/12/2025 at 08:12:54.

 OPENED e13.mvr
 FILE TYPE:MVR6      UNIT 1008   STATUS:OLD                 
 FORMAT:FORMATTED              ACCESS:SEQUENTIAL          
 ACTION:READ                


 OPENED e13.oc
 FILE TYPE:OC6       UNIT 1009   STATUS:OLD                 
 FORMAT:FORMATTED              ACCESS:SEQUENTIAL          
 ACTION:READ                


 OPENED e13.wel
 FILE TYPE:WEL6               UNIT 1010   STATUS:OLD                 
 FORMAT:FORMATTED              ACCESS:SEQUENTIAL          
 ACTION:READ                

 # File generated by Flopy version 3.8.2 on 11/12/2025 at 08:12:54.

 OPENED e13.ghb
 FILE TYPE:GHB6               UNIT 1011   STATUS:OLD                 
 FORMAT:FORMATTED              ACCESS:SEQUENTIAL          
 ACTION:READ                

 # File generated by Flopy version 3.8.2 on 11/12/2025 at 08:12:54.

 OPENED e13.sfr
 FILE TYPE:SFR6      UNIT 1012   STATUS:OLD                 
 FORMAT:FORMATTED              ACCESS:SEQUENTIAL          
 ACTION:READ                


 OPENED e13.lak
 FILE TYPE:LAK6      UNIT 1013   STATUS:OLD                 
 FORMAT:FORMATTED              ACCESS:SEQUENTIAL          
 ACTION:READ                


 OPENED e13.uzf
 FILE TYPE:UZF6      UNIT 1014   STATUS:OLD                 
 FORMAT:FORMATTED              ACCESS:SEQUENTIAL          
 ACTION:READ                


 READING SIMULATION OPTIONS
    MAXIMUM NUMBER OF ERRORS THAT WILL BE STORED IS 1000
 END OF SIMULATION OPTIONS

 READING SIMULATION TIMING

 TDIS -- TEMPORAL DISCRETIZATION PACKAGE,
 VERSION 1 : 11/13/2014 - INPUT READ FROM MEMPATH: __INPUT__/SIM/TDIS                                
 PROCESSING TDIS OPTIONS
    SIMULATION TIME UNIT IS SECONDS
 END OF TDIS OPTIONS
 PROCESSING TDIS DIMENSIONS
   24 STRESS PERIOD(S) IN SIMULATION
 END OF TDIS DIMENSIONS
 PROCESSING TDIS PERIODDATA


 STRESS PERIOD     LENGTH       TIME STEPS     MULTIPLIER FOR DELT
 ----------------------------------------------------------------------------
        1         2628000.          1                    1.000
        2         2628000.         15                    1.000
        3         2628000.         15                    1.000
        4         2628000.         15                    1.000
        5         2628000.         15                    1.000
        6         2628000.         15                    1.000
        7         2628000.         15                    1.000
        8         2628000.         15                    1.000
        9         2628000.         15                    1.000
       10         2628000.         15                    1.000
       11         2628000.         15                    1.000
       12         2628000.         15                    1.000
       13         2628000.         15                    1.000
       14         2628000.         15                    1.000
       15         2628000.         15                    1.000
       16         2628000.         15                    1.000
       17         2628000.         15                    1.000
       18         2628000.         15                    1.000
       19         2628000.         15                    1.000
       20         2628000.         15                    1.000
       21         2628000.         15                    1.000
       22         2628000.         15                    1.000
       23         2628000.         15                    1.000
       24         2628000.         15                    1.000
 END OF TDIS PERIODDATA
 END OF SIMULATION TIMING

 READING SIMULATION MODELS
    GWF6 model 1 will be created
 END OF SIMULATION MODELS

 READING SIMULATION EXCHANGES
 END OF SIMULATION EXCHANGES

 READING SOLUTIONGROUP

 Creating solution: SLN_1           

 OPENED e13.ims
 FILE TYPE:IMS   UNIT 1016   STATUS:OLD                 
 FORMAT:FORMATTED              ACCESS:SEQUENTIAL          
 ACTION:READ                

 END OF SOLUTIONGROUP

PROCESSING MODEL CONNECTIONS

 IMS -- ITERATIVE MODEL SOLUTION PACKAGE, VERSION 6, 4/28/2017
         INPUT READ FROM UNIT 1016
 # File generated by Flopy version 3.8.2 on 11/12/2025 at 08:12:54.

 PROCESSING IMS OPTIONS
 COMPLEX OPTION:
 DEFAULT SOLVER INPUT VALUES REFLECT STRONGLY NONLINEAR MODEL
 END OF IMS OPTIONS

 PROCESSING IMS NONLINEAR
 END OF IMS NONLINEAR DATA
 **UNDER-RELAXATION WILL BE USED***
 

 PROCESSING LINEAR DATA
 END OF LINEAR DATA
 ***IMS LINEAR SOLVER WILL BE USED***

 IMSLINEAR -- UNSTRUCTURED LINEAR SOLUTION PACKAGE, VERSION 8, 04/28/2017
 An asymmetric matrix will be solved

 OUTER ITERATION CONVERGENCE CRITERION    (DVCLOSE) =    0.100000E-03
 MAXIMUM NUMBER OF OUTER ITERATIONS        (MXITER) = 2000
 SOLVER PRINTOUT INDEX                     (IPRIMS) = 1
 NONLINEAR ITERATION METHOD            (NONLINMETH) = 3
 LINEAR SOLUTION METHOD                   (LINMETH) = 1
 UNDER-RELAXATION WEIGHT REDUCTION FACTOR   (THETA) =    0.700000E+00
 UNDER-RELAXATION WEIGHT INCREASE INCREMENT (KAPPA) =    0.800000E-01
 UNDER-RELAXATION PREVIOUS HISTORY FACTOR   (GAMMA) =    0.500000E-01
 UNDER-RELAXATION MOMENTUM TERM         (AMOMENTUM) =    0.000000E+00
 MAXIMUM NUMBER OF BACKTRACKS            (NUMTRACK) = 20
 BACKTRACKING TOLERANCE FACTOR               (BTOL) =    0.200000E+01
 BACKTRACKING REDUCTION FACTOR             (BREDUC) =    0.200000E+00
 BACKTRACKING RESIDUAL LIMIT              (RES_LIM) =    0.500000E-03

       SOLUTION BY THE BICONJUGATE-GRADIENT STABILIZED METHOD
 ------------------------------------------------------------------
 MAXIMUM OF 2000 CALLS OF SOLUTION ROUTINE
 MAXIMUM OF 100 INTERNAL ITERATIONS PER CALL TO SOLUTION ROUTINE
 LINEAR ACCELERATION METHOD            = BCGS      
 MATRIX PRECONDITIONING TYPE           = INCOMPLETE LUT      
 MATRIX SCALING APPROACH               = NO SCALING          
 MATRIX REORDERING APPROACH            = ORIGINAL ORDERING        
 NUMBER OF ORTHOGONALIZATIONS          = 2
 HEAD CHANGE CRITERION FOR CLOSURE     =    0.10000E-04
 RESIDUAL CHANGE CRITERION FOR CLOSURE =    0.10000E-03
 RESIDUAL CONVERGENCE OPTION           = 3
 RESIDUAL CONVERGENCE NORM             = RELATIVE L2NORM 
 RELAXATION FACTOR                     =    0.00000E+00
 NUMBER OF LEVELS                      =              8
 DROP TOLERANCE                        =    0.10000E-02


 
    Solving:  Stress period:     1    Time step:     1
 
1
 STRESS PERIOD NO. 1, LENGTH =   2628000.    
 ------------------------------------------
 NUMBER OF TIME STEPS = 1
 MULTIPLIER FOR DELT =     1.000
 INITIAL TIME STEP SIZE =   2628000.    



 PSEUDO-TRANSIENT CONTINUATION WILL BE APPLIED TO MODEL 1 ("E13") DURING THIS TIME STEP

 SLN_1 OUTER ITERATION SUMMARY
 ----------------------------------------------------------------------------------------------------------------------------------------------------------------
                                OUTER      INNER  BACKTRACK  BACKTRACK        INCOMING        OUTGOING                    STEP   MAXIMUM CHANGE MODEL-(CELLID) OR
 OUTER ITERATION STEP       ITERATION  ITERATION       FLAG ITERATIONS        RESIDUAL        RESIDUAL  MAXIMUM CHANGE SUCCESS             MODEL-PACKAGE-(NUMBER)
 ----------------------------------------------------------------------------------------------------------------------------------------------------------------
 Backtracking                       1                     0          0       85.003823       85.003823                       *                                   
 Model                              1          4                                                            -53.644173                              1_GWF-(2,1,1)
 Backtracking                       2                     1          1       2498.7552       68.074095                                                           
 Model                              2          4                                                            -56.385463                              1_GWF-(2,1,1)
 Backtracking                       3                     1          2       1901.5627       90.318763                                                           
 Model                              3          5                                                            -55.773434                              1_GWF-(2,1,1)
 Backtracking                       4                     0          0       41.638291       41.638291                       *                                   
 Model                              4          3                                                            -7.5209632                              1_GWF-(1,1,1)
 Backtracking                       5                     0          0       23.765788       23.765788                       *                                   
 Model                              5          4                                                            -1.0869911                             1_GWF-(1,13,7)
 Backtracking                       6                     0          0       7.8430042       7.8430042                       *                                   
 Model                              6          4                                                           -0.23365483                             1_GWF-(2,13,4)
 Backtracking                       7                     0          0      0.83784192      0.83784192                       *                                   
 Model                              7          3                                                       -3.37717635E-02                             1_GWF-(2,12,3)
 Backtracking                       8                     0          0      0.12787534      0.12787534                       *                                   
 Model                              8          2                                                       -1.80900004E-03                             1_GWF-(2,13,4)
 Backtracking                       9                     0          0  1.74128725E-02  1.74128725E-02                       *                                   
 Model                              9          3                                                        1.04597208E-04                              1_GWF-(1,6,7)
 Backtracking                      10                     0          0  8.55590334E-04  8.55590334E-04                       *                                   
 Model                             10          2                                                        1.80040821E-05       *                      1_GWF-(1,5,7)
 Package                           10                                                                      -0.24312551                  1_GWF-SFR-1-(31)-qfrommvr
 Backtracking                      11                     0          0  5.11365509E-05  5.11365509E-05                       *                                   
 Model                             11          1                                                       -3.00583383E-06       *                     1_GWF-(2,12,1)
 Package                           11                                                                  -1.32115544E-02                  1_GWF-SFR-1-(31)-qfrommvr
 Backtracking                      12                     0          0  1.43588068E-05  1.43588068E-05                       *                                   
 Model                             12          1                                                        1.59938008E-06       *                      1_GWF-(1,5,7)
 Package                           12                                                                   4.35356822E-04                  1_GWF-SFR-1-(31)-qfrommvr
 Backtracking                      13                     0          0  6.29707469E-06  6.29707469E-06                       *                                   
 Model                             13          1                                                        9.67127335E-07       *                     1_GWF-(2,13,4)
 Package                           13                                                                   1.26004049E-04                  1_GWF-SFR-1-(31)-qfrommvr
 Backtracking                      14                     0          0  5.56630212E-06  5.56630212E-06                       *                                   
 Model                             14          1                                                        6.62039270E-07       *                     1_GWF-(2,13,4)
 Package                           14                                                                   2.08658057E-05       *          1_GWF-SFR-1-(31)-qfrommvr
 ----------------------------------------------------------------------------------------------------------------------------------------------------------------


 14 CALLS TO NUMERICAL SOLUTION IN TIME STEP 1 STRESS PERIOD 1
 38 TOTAL ITERATIONS
 
    Solving:  Stress period:     2    Time step:     1
 
1
 STRESS PERIOD NO. 2, LENGTH =   2628000.    
 ------------------------------------------
 NUMBER OF TIME STEPS = 15
 MULTIPLIER FOR DELT =     1.000
 INITIAL TIME STEP SIZE =   175200.0    

 SLN_1 OUTER ITERATION SUMMARY
 ----------------------------------------------------------------------------------------------------------------------------------------------------------------
                                OUTER      INNER  BACKTRACK  BACKTRACK        INCOMING        OUTGOING                    STEP   MAXIMUM CHANGE MODEL-(CELLID) OR
 OUTER ITERATION STEP       ITERATION  ITERATION       FLAG ITERATIONS        RESIDUAL        RESIDUAL  MAXIMUM CHANGE SUCCESS             MODEL-PACKAGE-(NUMBER)
 ----------------------------------------------------------------------------------------------------------------------------------------------------------------
 Backtracking                       1                     0          0      0.98050323      0.98050323                       *                                   
 Model                              1          1                                                           -0.21907112                              1_GWF-(1,5,1)
 Backtracking                       2                     0          0  8.93892013E-02  8.93892013E-02                       *                                   
 Model                              2          1                                                        1.78400610E-03                             1_GWF-(1,13,2)
 Backtracking                       3                     0          0  8.08803023E-02  8.08803023E-02                       *                                   
 Model                              3          1                                                        5.65547243E-04                             1_GWF-(1,13,2)
 Backtracking                       4                     0          0  7.94385474E-02  7.94385474E-02                       *                                   
 Model                              4          1                                                        1.45218225E-04                             1_GWF-(1,13,2)
 Backtracking                       5                     0          0  7.93433062E-02  7.93433062E-02                       *                                   
 Model                              5          1                                                        2.62247846E-05       *                     1_GWF-(1,13,2)
 Package                            5                                                                  -3.17656458E-04                  1_GWF-SFR-1-(31)-qfrommvr
 Backtracking                       6                     0          0  7.93389837E-02  7.93389837E-02                       *                                   
 Model                              6          1                                                        2.73748799E-06       *                     1_GWF-(1,13,2)
 Package                            6                                                                   9.10372059E-06       *          1_GWF-SFR-1-(31)-qfrommvr
 ----------------------------------------------------------------------------------------------------------------------------------------------------------------


 6 CALLS TO NUMERICAL SOLUTION IN TIME STEP 1 STRESS PERIOD 2
 6 TOTAL ITERATIONS
 
    Solving:  Stress period:     2    Time step:     2
 

 SLN_1 OUTER ITERATION SUMMARY
 ----------------------------------------------------------------------------------------------------------------------------------------------------------------
                                OUTER      INNER  BACKTRACK  BACKTRACK        INCOMING        OUTGOING                    STEP   MAXIMUM CHANGE MODEL-(CELLID) OR
 OUTER ITERATION STEP       ITERATION  ITERATION       FLAG ITERATIONS        RESIDUAL        RESIDUAL  MAXIMUM CHANGE SUCCESS             MODEL-PACKAGE-(NUMBER)
 ----------------------------------------------------------------------------------------------------------------------------------------------------------------
 Backtracking                       1                     0          0      0.94431164      0.94431164                       *                                   
 Model                              1          1                                                       -2.53328342E-03                             1_GWF-(1,14,6)
 Backtracking                       2                     0          0  8.95906972E-02  8.95906972E-02                       *                                   
 Model                              2          1                                                        1.78496239E-03                             1_GWF-(1,13,2)
 Backtracking                       3                     0          0  8.08746809E-02  8.08746809E-02                       *                                   
 Model                              3          1                                                        5.63819617E-04                             1_GWF-(1,13,2)
 Backtracking                       4                     0          0  7.94369402E-02  7.94369402E-02                       *                                   
 Model                              4          1                                                        1.44529623E-04                             1_GWF-(1,13,2)
 Backtracking                       5                     0          0  7.93429351E-02  7.93429351E-02                       *                                   
 Model                              5          1                                                        2.60309903E-05       *                     1_GWF-(1,13,2)
 Package                            5                                                                  -3.20053768E-04                  1_GWF-SFR-1-(31)-qfrommvr
 Backtracking                       6                     0          0  7.93387548E-02  7.93387548E-02                       *                                   
 Model                              6          1                                                        2.70359294E-06       *                     1_GWF-(1,13,2)
 Package                            6                                                                   9.20529105E-06       *          1_GWF-SFR-1-(31)-qfrommvr
 ----------------------------------------------------------------------------------------------------------------------------------------------------------------


 6 CALLS TO NUMERICAL SOLUTION IN TIME STEP 2 STRESS PERIOD 2
 6 TOTAL ITERATIONS
 
    Solving:  Stress period:     2    Time step:     3
 

 SLN_1 OUTER ITERATION SUMMARY
 ----------------------------------------------------------------------------------------------------------------------------------------------------------------
                                OUTER      INNER  BACKTRACK  BACKTRACK        INCOMING        OUTGOING                    STEP   MAXIMUM CHANGE MODEL-(CELLID) OR
 OUTER ITERATION STEP       ITERATION  ITERATION       FLAG ITERATIONS        RESIDUAL        RESIDUAL  MAXIMUM CHANGE SUCCESS             MODEL-PACKAGE-(NUMBER)
 ----------------------------------------------------------------------------------------------------------------------------------------------------------------
 Backtracking                       1                     0          0      0.94339145      0.94339145                       *                                   
 Model                              1          1                                                       -2.49497340E-03                             1_GWF-(1,14,6)
 Backtracking                       2                     0          0  8.96967756E-02  8.96967756E-02                       *                                   
 Model                              2          1                                                        1.78587864E-03                             1_GWF-(1,13,2)
 Backtracking                       3                     0          0  8.08800741E-02  8.08800741E-02                       *                                   
 Model                              3          1                                                        5.62193862E-04                             1_GWF-(1,13,2)
 Backtracking                       4                     0          0  7.94357639E-02  7.94357639E-02                       *                                   
 Model                              4          1                                                        1.43868897E-04                             1_GWF-(1,13,2)
 Backtracking                       5                     0          0  7.93425842E-02  7.93425842E-02                       *                                   
 Model                              5          1                                                        2.58428842E-05       *                     1_GWF-(1,13,2)
 Package                            5                                                                  -3.19929358E-04                  1_GWF-SFR-1-(31)-qfrommvr
 Backtracking                       6                     0          0  7.93385276E-02  7.93385276E-02                       *                                   
 Model                              6          1                                                        2.67048802E-06       *                     1_GWF-(1,13,2)
 Package                            6                                                                   9.22369851E-06       *          1_GWF-SFR-1-(31)-qfrommvr
 ----------------------------------------------------------------------------------------------------------------------------------------------------------------


 6 CALLS TO NUMERICAL SOLUTION IN TIME STEP 3 STRESS PERIOD 2
 6 TOTAL ITERATIONS
 
    Solving:  Stress period:     2    Time step:     4
 

 SLN_1 OUTER ITERATION SUMMARY
 ----------------------------------------------------------------------------------------------------------------------------------------------------------------
                                OUTER      INNER  BACKTRACK  BACKTRACK        INCOMING        OUTGOING                    STEP   MAXIMUM CHANGE MODEL-(CELLID) OR
 OUTER ITERATION STEP       ITERATION  ITERATION       FLAG ITERATIONS        RESIDUAL        RESIDUAL  MAXIMUM CHANGE SUCCESS             MODEL-PACKAGE-(NUMBER)
 ----------------------------------------------------------------------------------------------------------------------------------------------------------------
 Backtracking                       1                     0          0      0.94280064      0.94280064                       *                                   
 Model                              1          1                                                       -2.45735801E-03                             1_GWF-(1,14,6)
 Backtracking                       2                     0          0  8.98475526E-02  8.98475526E-02                       *                                   
 Model                              2          1                                                        1.78676783E-03                             1_GWF-(1,13,2)
 Backtracking                       3                     0          0  8.08809398E-02  8.08809398E-02                       *                                   
 Model                              3          1                                                        5.60674774E-04                             1_GWF-(1,13,2)
 Backtracking                       4                     0          0  7.94353081E-02  7.94353081E-02                       *                                   
 Model                              4          1                                                        1.43236811E-04                             1_GWF-(1,13,2)
 Backtracking                       5                     0          0  7.93423382E-02  7.93423382E-02                       *                                   
 Model                              5          1                                                        2.56605523E-05       *                     1_GWF-(1,13,2)
 Package                            5                                                                  -3.19800069E-04                  1_GWF-SFR-1-(31)-qfrommvr
 Backtracking                       6                     0          0  7.93383074E-02  7.93383074E-02                       *                                   
 Model                              6          1                                                        2.63817788E-06       *                     1_GWF-(1,13,2)
 Package                            6                                                                   9.24053638E-06       *          1_GWF-SFR-1-(31)-qfrommvr
 ----------------------------------------------------------------------------------------------------------------------------------------------------------------


 6 CALLS TO NUMERICAL SOLUTION IN TIME STEP 4 STRESS PERIOD 2
 6 TOTAL ITERATIONS
 
    Solving:  Stress period:     2    Time step:     5
 

 SLN_1 OUTER ITERATION SUMMARY
 ----------------------------------------------------------------------------------------------------------------------------------------------------------------
                                OUTER      INNER  BACKTRACK  BACKTRACK        INCOMING        OUTGOING                    STEP   MAXIMUM CHANGE MODEL-(CELLID) OR
 OUTER ITERATION STEP       ITERATION  ITERATION       FLAG ITERATIONS        RESIDUAL        RESIDUAL  MAXIMUM CHANGE SUCCESS             MODEL-PACKAGE-(NUMBER)
 ----------------------------------------------------------------------------------------------------------------------------------------------------------------
 Backtracking                       1                     0          0      0.94240596      0.94240596                       *                                   
 Model                              1          1                                                       -2.42039598E-03                             1_GWF-(1,14,6)
 Backtracking                       2                     0          0  8.99673523E-02  8.99673523E-02                       *                                   
 Model                              2          1                                                        1.78762838E-03                             1_GWF-(1,13,2)
 Backtracking                       3                     0          0  8.08787553E-02  8.08787553E-02                       *                                   
 Model                              3          1                                                        5.59257358E-04                             1_GWF-(1,13,2)
 Backtracking                       4                     0          0  7.94339651E-02  7.94339651E-02                       *                                   
 Model                              4          1                                                        1.42631946E-04                             1_GWF-(1,13,2)
 Backtracking                       5                     0          0  7.93420066E-02  7.93420066E-02                       *                                   
 Model                              5          1                                                        2.54836931E-05       *                     1_GWF-(1,13,2)
 Package                            5                                                                  -3.19672125E-04                  1_GWF-SFR-1-(31)-qfrommvr
 Backtracking                       6                     0          0  7.93380831E-02  7.93380831E-02                       *                                   
 Model                              6          1                                                        2.60661795E-06       *                     1_GWF-(1,13,2)
 Package                            6                                                                   9.25700728E-06       *          1_GWF-SFR-1-(31)-qfrommvr
 ----------------------------------------------------------------------------------------------------------------------------------------------------------------


 6 CALLS TO NUMERICAL SOLUTION IN TIME STEP 5 STRESS PERIOD 2
 6 TOTAL ITERATIONS
 
    Solving:  Stress period:     2    Time step:     6
 

 SLN_1 OUTER ITERATION SUMMARY
 ----------------------------------------------------------------------------------------------------------------------------------------------------------------
                                OUTER      INNER  BACKTRACK  BACKTRACK        INCOMING        OUTGOING                    STEP   MAXIMUM CHANGE MODEL-(CELLID) OR
 OUTER ITERATION STEP       ITERATION  ITERATION       FLAG ITERATIONS        RESIDUAL        RESIDUAL  MAXIMUM CHANGE SUCCESS             MODEL-PACKAGE-(NUMBER)
 ----------------------------------------------------------------------------------------------------------------------------------------------------------------
 Backtracking                       1                     0          0      0.94213922      0.94213922                       *                                   
 Model                              1          1                                                       -2.38407326E-03                             1_GWF-(1,14,6)
 Backtracking                       2                     0          0  9.00968216E-02  9.00968216E-02                       *                                   
 Model                              2          1                                                        1.78846251E-03                             1_GWF-(1,13,2)
 Backtracking                       3                     0          0  8.08782271E-02  8.08782271E-02                       *                                   
 Model                              3          1                                                        5.58808112E-04                             1_GWF-(1,13,2)
 Backtracking                       4                     0          0  7.94313954E-02  7.94313954E-02                       *                                   
 Model                              4          1                                                        1.41403550E-04                             1_GWF-(1,13,2)
 Backtracking                       5                     0          0  7.93416102E-02  7.93416102E-02                       *                                   
 Model                              5          1                                                        2.51964917E-05       *                     1_GWF-(1,13,2)
 Package                            5                                                                  -3.19308088E-04                  1_GWF-SFR-1-(31)-qfrommvr
 Backtracking                       6                     0          0  7.93378556E-02  7.93378556E-02                       *                                   
 Model                              6          1                                                        2.56401620E-06       *                     1_GWF-(1,13,2)
 Package                            6                                                                   9.27097914E-06       *          1_GWF-SFR-1-(31)-qfrommvr
 ----------------------------------------------------------------------------------------------------------------------------------------------------------------


 6 CALLS TO NUMERICAL SOLUTION IN TIME STEP 6 STRESS PERIOD 2
 6 TOTAL ITERATIONS
 
    Solving:  Stress period:     2    Time step:     7
 

 SLN_1 OUTER ITERATION SUMMARY
 ----------------------------------------------------------------------------------------------------------------------------------------------------------------
                                OUTER      INNER  BACKTRACK  BACKTRACK        INCOMING        OUTGOING                    STEP   MAXIMUM CHANGE MODEL-(CELLID) OR
 OUTER ITERATION STEP       ITERATION  ITERATION       FLAG ITERATIONS        RESIDUAL        RESIDUAL  MAXIMUM CHANGE SUCCESS             MODEL-PACKAGE-(NUMBER)
 ----------------------------------------------------------------------------------------------------------------------------------------------------------------
 Backtracking                       1                     0          0      0.94195832      0.94195832                       *                                   
 Model                              1          1                                                       -2.34837686E-03                             1_GWF-(1,14,6)
 Backtracking                       2                     0          0  9.02473498E-02  9.02473498E-02                       *                                   
 Model                              2          1                                                        1.78927042E-03                             1_GWF-(1,13,2)
 Backtracking                       3                     0          0  8.08869267E-02  8.08869267E-02                       *                                   
 Model                              3          1                                                        5.59049844E-04                             1_GWF-(1,13,2)
 Backtracking                       4                     0          0  7.94286797E-02  7.94286797E-02                       *                                   
 Model                              4          1                                                        1.39751646E-04                             1_GWF-(1,13,2)
 Backtracking                       5                     0          0  7.93412256E-02  7.93412256E-02                       *                                   
 Model                              5          1                                                        2.48358007E-05       *                     1_GWF-(1,13,2)
 Package                            5                                                                  -3.18781935E-04                  1_GWF-SFR-1-(31)-qfrommvr
 Backtracking                       6                     0          0  7.93376298E-02  7.93376298E-02                       *                                   
 Model                              6          1                                                        2.51427889E-06       *                     1_GWF-(1,13,2)
 Package                            6                                                                   9.28278284E-06       *          1_GWF-SFR-1-(31)-qfrommvr
 ----------------------------------------------------------------------------------------------------------------------------------------------------------------


 6 CALLS TO NUMERICAL SOLUTION IN TIME STEP 7 STRESS PERIOD 2
 6 TOTAL ITERATIONS
 
    Solving:  Stress period:     2    Time step:     8
 

 SLN_1 OUTER ITERATION SUMMARY
 ----------------------------------------------------------------------------------------------------------------------------------------------------------------
                                OUTER      INNER  BACKTRACK  BACKTRACK        INCOMING        OUTGOING                    STEP   MAXIMUM CHANGE MODEL-(CELLID) OR
 OUTER ITERATION STEP       ITERATION  ITERATION       FLAG ITERATIONS        RESIDUAL        RESIDUAL  MAXIMUM CHANGE SUCCESS             MODEL-PACKAGE-(NUMBER)
 ----------------------------------------------------------------------------------------------------------------------------------------------------------------
 Backtracking                       1                     0          0      0.94183899      0.94183899                       *                                   
 Model                              1          1                                                       -2.31329557E-03                             1_GWF-(1,14,6)
 Backtracking                       2                     0          0  9.03425565E-02  9.03425565E-02                       *                                   
 Model                              2          1                                                        1.79005290E-03                             1_GWF-(1,13,2)
 Backtracking                       3                     0          0  8.08956370E-02  8.08956370E-02                       *                                   
 Model                              3          1                                                        5.59283890E-04                             1_GWF-(1,13,2)
 Backtracking                       4                     0          0  7.94256989E-02  7.94256989E-02                       *                                   
 Model                              4          1                                                        1.38192702E-04                             1_GWF-(1,13,2)
 Backtracking                       5                     0          0  7.93408233E-02  7.93408233E-02                       *                                   
 Model                              5          1                                                        2.44931648E-05       *                     1_GWF-(1,13,2)
 Package                            5                                                                  -3.18283406E-04                  1_GWF-SFR-1-(31)-qfrommvr
 Backtracking                       6                     0          0  7.93374035E-02  7.93374035E-02                       *                                   
 Model                              6          1                                                        2.46674404E-06       *                     1_GWF-(1,13,2)
 Package                            6                                                                   9.29428097E-06       *          1_GWF-SFR-1-(31)-qfrommvr
 ----------------------------------------------------------------------------------------------------------------------------------------------------------------


 6 CALLS TO NUMERICAL SOLUTION IN TIME STEP 8 STRESS PERIOD 2
 6 TOTAL ITERATIONS
 
    Solving:  Stress period:     2    Time step:     9
 

 SLN_1 OUTER ITERATION SUMMARY
 ----------------------------------------------------------------------------------------------------------------------------------------------------------------
                                OUTER      INNER  BACKTRACK  BACKTRACK        INCOMING        OUTGOING                    STEP   MAXIMUM CHANGE MODEL-(CELLID) OR
 OUTER ITERATION STEP       ITERATION  ITERATION       FLAG ITERATIONS        RESIDUAL        RESIDUAL  MAXIMUM CHANGE SUCCESS             MODEL-PACKAGE-(NUMBER)
 ----------------------------------------------------------------------------------------------------------------------------------------------------------------
 Backtracking                       1                     0          0      0.94176809      0.94176809                       *                                   
 Model                              1          1                                                       -2.27881911E-03                             1_GWF-(1,14,6)
 Backtracking                       2                     0          0  9.04387240E-02  9.04387240E-02                       *                                   
 Model                              2          1                                                        1.79081073E-03                             1_GWF-(1,13,2)
 Backtracking                       3                     0          0  8.09016541E-02  8.09016541E-02                       *                                   
 Model                              3          1                                                        5.59510575E-04                             1_GWF-(1,13,2)
 Backtracking                       4                     0          0  7.94230509E-02  7.94230509E-02                       *                                   
 Model                              4          1                                                        1.36722167E-04                             1_GWF-(1,13,2)
 Backtracking                       5                     0          0  7.93404395E-02  7.93404395E-02                       *                                   
 Model                              5          1                                                        2.41676129E-05       *                     1_GWF-(1,13,2)
 Package                            5                                                                  -3.17811068E-04                  1_GWF-SFR-1-(31)-qfrommvr
 Backtracking                       6                     0          0  7.93371790E-02  7.93371790E-02                       *                                   
 Model                              6          1                                                        2.42128169E-06       *                     1_GWF-(1,13,2)
 Package                            6                                                                   9.30562397E-06       *          1_GWF-SFR-1-(31)-qfrommvr
 ----------------------------------------------------------------------------------------------------------------------------------------------------------------


 6 CALLS TO NUMERICAL SOLUTION IN TIME STEP 9 STRESS PERIOD 2
 6 TOTAL ITERATIONS
 
    Solving:  Stress period:     2    Time step:    10
 

 SLN_1 OUTER ITERATION SUMMARY
 ----------------------------------------------------------------------------------------------------------------------------------------------------------------
                                OUTER      INNER  BACKTRACK  BACKTRACK        INCOMING        OUTGOING                    STEP   MAXIMUM CHANGE MODEL-(CELLID) OR
 OUTER ITERATION STEP       ITERATION  ITERATION       FLAG ITERATIONS        RESIDUAL        RESIDUAL  MAXIMUM CHANGE SUCCESS             MODEL-PACKAGE-(NUMBER)
 ----------------------------------------------------------------------------------------------------------------------------------------------------------------
 Backtracking                       1                     0          0      0.94173558      0.94173558                       *                                   
 Model                              1          1                                                       -2.24493726E-03                             1_GWF-(1,14,6)
 Backtracking                       2                     0          0  9.05530071E-02  9.05530071E-02                       *                                   
 Model                              2          1                                                        1.79154439E-03                             1_GWF-(1,13,2)
 Backtracking                       3                     0          0  8.09076140E-02  8.09076140E-02                       *                                   
 Model                              3          1                                                        5.59730044E-04                             1_GWF-(1,13,2)
 Backtracking                       4                     0          0  7.94207967E-02  7.94207967E-02                       *                                   
 Model                              4          1                                                        1.35335740E-04                             1_GWF-(1,13,2)
 Backtracking                       5                     0          0  7.93401633E-02  7.93401633E-02                       *                                   
 Model                              5          1                                                        2.38582622E-05       *                     1_GWF-(1,13,2)
 Package                            5                                                                  -3.17363669E-04                  1_GWF-SFR-1-(31)-qfrommvr
 Backtracking                       6                     0          0  7.93369889E-02  7.93369889E-02                       *                                   
 Model                              6          1                                                        2.37777454E-06       *                     1_GWF-(1,13,2)
 Package                            6                                                                   9.31678210E-06       *          1_GWF-SFR-1-(31)-qfrommvr
 ----------------------------------------------------------------------------------------------------------------------------------------------------------------


 6 CALLS TO NUMERICAL SOLUTION IN TIME STEP 10 STRESS PERIOD 2
 6 TOTAL ITERATIONS
 
    Solving:  Stress period:     2    Time step:    11
 

 SLN_1 OUTER ITERATION SUMMARY
 ----------------------------------------------------------------------------------------------------------------------------------------------------------------
                                OUTER      INNER  BACKTRACK  BACKTRACK        INCOMING        OUTGOING                    STEP   MAXIMUM CHANGE MODEL-(CELLID) OR
 OUTER ITERATION STEP       ITERATION  ITERATION       FLAG ITERATIONS        RESIDUAL        RESIDUAL  MAXIMUM CHANGE SUCCESS             MODEL-PACKAGE-(NUMBER)
 ----------------------------------------------------------------------------------------------------------------------------------------------------------------
 Backtracking                       1                     0          0      0.51103344      0.51103344                       *                                   
 Model                              1          1                                                        2.19650380E-02                             1_GWF-(1,13,2)
 Backtracking                       2                     0          0      0.30381422      0.30381422                       *                                   
 Model                              2          1                                                        1.01237400E-02                             1_GWF-(1,13,2)
 Backtracking                       3                     0          0      0.14024246      0.14024246                       *                                   
 Model                              3          1                                                        3.85541472E-03                             1_GWF-(1,13,2)
 Backtracking                       4                     0          0  9.08049725E-02  9.08049725E-02                       *                                   
 Model                              4          1                                                        1.45973155E-03                             1_GWF-(1,13,2)
 Backtracking                       5                     0          0  8.11737072E-02  8.11737072E-02                       *                                   
 Model                              5          1                                                        5.52697788E-04                             1_GWF-(1,13,2)
 Backtracking                       6                     0          0  7.96395669E-02  7.96395669E-02                       *                                   
 Model                              6          1                                                        2.09269787E-04                             1_GWF-(1,13,2)
 Backtracking                       7                     0          0  7.93934450E-02  7.93934450E-02                       *                                   
 Model                              7          1                                                        7.92364739E-05       *                     1_GWF-(1,13,2)
 Package                            7                                                                  -5.20134859E-05       *          1_GWF-SFR-1-(31)-qfrommvr
 ----------------------------------------------------------------------------------------------------------------------------------------------------------------


 7 CALLS TO NUMERICAL SOLUTION IN TIME STEP 11 STRESS PERIOD 2
 7 TOTAL ITERATIONS
 
    Solving:  Stress period:     2    Time step:    12
 

 SLN_1 OUTER ITERATION SUMMARY
 ----------------------------------------------------------------------------------------------------------------------------------------------------------------
                                OUTER      INNER  BACKTRACK  BACKTRACK        INCOMING        OUTGOING                    STEP   MAXIMUM CHANGE MODEL-(CELLID) OR
 OUTER ITERATION STEP       ITERATION  ITERATION       FLAG ITERATIONS        RESIDUAL        RESIDUAL  MAXIMUM CHANGE SUCCESS             MODEL-PACKAGE-(NUMBER)
 ----------------------------------------------------------------------------------------------------------------------------------------------------------------
 Backtracking                       1                     0          0      0.52048618      0.52048618                       *                                   
 Model                              1          1                                                        2.93981681E-02                             1_GWF-(1,13,2)
 Backtracking                       2                     0          0      0.38564787      0.38564787                       *                                   
 Model                              2          1                                                        1.29379313E-02                             1_GWF-(1,13,2)
 Backtracking                       3                     0          0      0.16749754      0.16749754                       *                                   
 Model                              3          1                                                        4.92086976E-03                             1_GWF-(1,13,2)
 Backtracking                       4                     0          0  9.72510804E-02  9.72510804E-02                       *                                   
 Model                              4          1                                                        1.86311108E-03                             1_GWF-(1,13,2)
 Backtracking                       5                     0          0  8.22609227E-02  8.22609227E-02                       *                                   
 Model                              5          1                                                        7.05415690E-04                             1_GWF-(1,13,2)
 Backtracking                       6                     0          0  7.98084736E-02  7.98084736E-02                       *                                   
 Model                              6          1                                                        2.67087936E-04                             1_GWF-(1,13,2)
 Backtracking                       7                     0          0  7.94211170E-02  7.94211170E-02                       *                                   
 Model                              7          1                                                        1.01126078E-04                             1_GWF-(1,13,2)
 Backtracking                       8                     0          0  7.93546140E-02  7.93546140E-02                       *                                   
 Model                              8          1                                                        3.82887813E-05       *                     1_GWF-(1,13,2)
 Package                            8                                                                  -2.13279430E-05       *          1_GWF-SFR-1-(31)-qfrommvr
 ----------------------------------------------------------------------------------------------------------------------------------------------------------------


 8 CALLS TO NUMERICAL SOLUTION IN TIME STEP 12 STRESS PERIOD 2
 8 TOTAL ITERATIONS
 
    Solving:  Stress period:     2    Time step:    13
 

 SLN_1 OUTER ITERATION SUMMARY
 ----------------------------------------------------------------------------------------------------------------------------------------------------------------
                                OUTER      INNER  BACKTRACK  BACKTRACK        INCOMING        OUTGOING                    STEP   MAXIMUM CHANGE MODEL-(CELLID) OR
 OUTER ITERATION STEP       ITERATION  ITERATION       FLAG ITERATIONS        RESIDUAL        RESIDUAL  MAXIMUM CHANGE SUCCESS             MODEL-PACKAGE-(NUMBER)
 ----------------------------------------------------------------------------------------------------------------------------------------------------------------
 Backtracking                       1                     0          0      0.50577763      0.50577763                       *                                   
 Model                              1          1                                                        2.71623558E-02                             1_GWF-(1,13,2)
 Backtracking                       2                     0          0      0.36121490      0.36121490                       *                                   
 Model                              2          1                                                        1.20996249E-02                             1_GWF-(1,13,2)
 Backtracking                       3                     0          0      0.15938404      0.15938404                       *                                   
 Model                              3          1                                                        4.61014874E-03                             1_GWF-(1,13,2)
 Backtracking                       4                     0          0  9.53031561E-02  9.53031561E-02                       *                                   
 Model                              4          1                                                        1.74800866E-03                             1_GWF-(1,13,2)
 Backtracking                       5                     0          0  8.19335741E-02  8.19335741E-02                       *                                   
 Model                              5          1                                                        6.62799280E-04                             1_GWF-(1,13,2)
 Backtracking                       6                     0          0  7.97584158E-02  7.97584158E-02                       *                                   
 Model                              6          1                                                        2.51317774E-04                             1_GWF-(1,13,2)
 Backtracking                       7                     0          0  7.94129419E-02  7.94129419E-02                       *                                   
 Model                              7          1                                                        9.52936488E-05       *                     1_GWF-(1,13,2)
 Package                            7                                                                  -6.22120806E-05       *          1_GWF-SFR-1-(31)-qfrommvr
 ----------------------------------------------------------------------------------------------------------------------------------------------------------------


 7 CALLS TO NUMERICAL SOLUTION IN TIME STEP 13 STRESS PERIOD 2
 7 TOTAL ITERATIONS
 
    Solving:  Stress period:     2    Time step:    14
 

 SLN_1 OUTER ITERATION SUMMARY
 ----------------------------------------------------------------------------------------------------------------------------------------------------------------
                                OUTER      INNER  BACKTRACK  BACKTRACK        INCOMING        OUTGOING                    STEP   MAXIMUM CHANGE MODEL-(CELLID) OR
 OUTER ITERATION STEP       ITERATION  ITERATION       FLAG ITERATIONS        RESIDUAL        RESIDUAL  MAXIMUM CHANGE SUCCESS             MODEL-PACKAGE-(NUMBER)
 ----------------------------------------------------------------------------------------------------------------------------------------------------------------
 Backtracking                       1                     0          0      0.49982087      0.49982087                       *                                   
 Model                              1          1                                                        2.50872777E-02                             1_GWF-(1,13,2)
 Backtracking                       2                     0          0      0.33855381      0.33855381                       *                                   
 Model                              2          1                                                        1.13195355E-02                             1_GWF-(1,13,2)
 Backtracking                       3                     0          0      0.15178276      0.15178276                       *                                   
 Model                              3          1                                                        4.31430387E-03                             1_GWF-(1,13,2)
 Backtracking                       4                     0          0  9.34864268E-02  9.34864268E-02                       *                                   
 Model                              4          1                                                        1.63580512E-03                             1_GWF-(1,13,2)
 Backtracking                       5                     0          0  8.16250344E-02  8.16250344E-02                       *                                   
 Model                              5          1                                                        6.20242755E-04                             1_GWF-(1,13,2)
 Backtracking                       6                     0          0  7.97100246E-02  7.97100246E-02                       *                                   
 Model                              6          1                                                        2.35176730E-04                             1_GWF-(1,13,2)
 Backtracking                       7                     0          0  7.94047875E-02  7.94047875E-02                       *                                   
 Model                              7          1                                                        8.91716911E-05       *                     1_GWF-(1,13,2)
 Package                            7                                                                  -5.84587358E-05       *          1_GWF-SFR-1-(31)-qfrommvr
 ----------------------------------------------------------------------------------------------------------------------------------------------------------------


 7 CALLS TO NUMERICAL SOLUTION IN TIME STEP 14 STRESS PERIOD 2
 7 TOTAL ITERATIONS
 
    Solving:  Stress period:     2    Time step:    15
 

 SLN_1 OUTER ITERATION SUMMARY
 ----------------------------------------------------------------------------------------------------------------------------------------------------------------
                                OUTER      INNER  BACKTRACK  BACKTRACK        INCOMING        OUTGOING                    STEP   MAXIMUM CHANGE MODEL-(CELLID) OR
 OUTER ITERATION STEP       ITERATION  ITERATION       FLAG ITERATIONS        RESIDUAL        RESIDUAL  MAXIMUM CHANGE SUCCESS             MODEL-PACKAGE-(NUMBER)
 ----------------------------------------------------------------------------------------------------------------------------------------------------------------
 Backtracking                       1                     0          0      0.50117614      0.50117614                       *                                   
 Model                              1          1                                                        2.31606589E-02                             1_GWF-(1,13,2)
 Backtracking                       2                     0          0      0.31741339      0.31741339                       *                                   
 Model                              2          1                                                        1.05889421E-02                             1_GWF-(1,13,2)
 Backtracking                       3                     0          0      0.14478841      0.14478841                       *                                   
 Model                              3          1                                                        4.03723504E-03                             1_GWF-(1,13,2)
 Backtracking                       4                     0          0  9.18630554E-02  9.18630554E-02                       *                                   
 Model                              4          1                                                        1.53072729E-03                             1_GWF-(1,13,2)
 Backtracking                       5                     0          0  8.13529978E-02  8.13529978E-02                       *                                   
 Model                              5          1                                                        5.80391836E-04                             1_GWF-(1,13,2)
 Backtracking                       6                     0          0  7.96673122E-02  7.96673122E-02                       *                                   
 Model                              6          1                                                        2.20063150E-04                             1_GWF-(1,13,2)
 Backtracking                       7                     0          0  7.93975183E-02  7.93975183E-02                       *                                   
 Model                              7          1                                                        8.34398116E-05       *                     1_GWF-(1,13,2)
 Package                            7                                                                  -5.49349771E-05       *          1_GWF-SFR-1-(31)-qfrommvr
 ----------------------------------------------------------------------------------------------------------------------------------------------------------------


 7 CALLS TO NUMERICAL SOLUTION IN TIME STEP 15 STRESS PERIOD 2
 7 TOTAL ITERATIONS
 
    Solving:  Stress period:     3    Time step:     1
 
1
 STRESS PERIOD NO. 3, LENGTH =   2628000.    
 ------------------------------------------
 NUMBER OF TIME STEPS = 15
 MULTIPLIER FOR DELT =     1.000
 INITIAL TIME STEP SIZE =   175200.0    

 SLN_1 OUTER ITERATION SUMMARY
 ----------------------------------------------------------------------------------------------------------------------------------------------------------------
                                OUTER      INNER  BACKTRACK  BACKTRACK        INCOMING        OUTGOING                    STEP   MAXIMUM CHANGE MODEL-(CELLID) OR
 OUTER ITERATION STEP       ITERATION  ITERATION       FLAG ITERATIONS        RESIDUAL        RESIDUAL  MAXIMUM CHANGE SUCCESS             MODEL-PACKAGE-(NUMBER)
 ----------------------------------------------------------------------------------------------------------------------------------------------------------------
 Backtracking                       1                     0          0       2.7636611       2.7636611                       *                                   
 Model                              1          1                                                            -2.6681609                              1_GWF-(1,6,4)
 Backtracking                       2                     0          0      0.31574296      0.31574296                       *                                   
 Model                              2          1                                                            0.14877525                              1_GWF-(1,7,5)
 Backtracking                       3                     0          0      0.13991209      0.13991209                       *                                   
 Model                              3          1                                                        4.46359265E-02                              1_GWF-(1,7,5)
 Backtracking                       4                     0          0  9.04754947E-02  9.04754947E-02                       *                                   
 Model                              4          1                                                        9.81997297E-03                              1_GWF-(1,7,5)
 Backtracking                       5                     0          0  8.11054202E-02  8.11054202E-02                       *                                   
 Model                              5          1                                                        1.37482803E-03                              1_GWF-(1,7,5)
 Backtracking                       6                     0          0  7.96285147E-02  7.96285147E-02                       *                                   
 Model                              6          1                                                        2.05941832E-04                             1_GWF-(1,13,2)
 Backtracking                       7                     0          0  7.93905507E-02  7.93905507E-02                       *                                   
 Model                              7          1                                                        7.80844168E-05       *                     1_GWF-(1,13,2)
 Package                            7                                                                  -5.16551291E-05       *          1_GWF-SFR-1-(31)-qfrommvr
 ----------------------------------------------------------------------------------------------------------------------------------------------------------------


 7 CALLS TO NUMERICAL SOLUTION IN TIME STEP 1 STRESS PERIOD 3
 7 TOTAL ITERATIONS
 
    Solving:  Stress period:     3    Time step:     2
 

 SLN_1 OUTER ITERATION SUMMARY
 ----------------------------------------------------------------------------------------------------------------------------------------------------------------
                                OUTER      INNER  BACKTRACK  BACKTRACK        INCOMING        OUTGOING                    STEP   MAXIMUM CHANGE MODEL-(CELLID) OR
 OUTER ITERATION STEP       ITERATION  ITERATION       FLAG ITERATIONS        RESIDUAL        RESIDUAL  MAXIMUM CHANGE SUCCESS             MODEL-PACKAGE-(NUMBER)
 ----------------------------------------------------------------------------------------------------------------------------------------------------------------
 Backtracking                       1                     0          0       2.6380342       2.6380342                       *                                   
 Model                              1          1                                                       -3.35568182E-02                              1_GWF-(1,8,5)
 Backtracking                       2                     0          0      0.27907337      0.27907337                       *                                   
 Model                              2          1                                                        9.27076577E-03                             1_GWF-(1,13,2)
 Backtracking                       3                     0          0      0.13235970      0.13235970                       *                                   
 Model                              3          1                                                        3.53734259E-03                             1_GWF-(1,13,2)
 Backtracking                       4                     0          0  8.91078953E-02  8.91078953E-02                       *                                   
 Model                              4          1                                                        1.34115128E-03                             1_GWF-(1,13,2)
 Backtracking                       5                     0          0  8.09006978E-02  8.09006978E-02                       *                                   
 Model                              5          1                                                        5.08497880E-04                             1_GWF-(1,13,2)
 Backtracking                       6                     0          0  7.95960825E-02  7.95960825E-02                       *                                   
 Model                              6          1                                                        1.92798350E-04                             1_GWF-(1,13,2)
 Backtracking                       7                     0          0  7.93845491E-02  7.93845491E-02                       *                                   
 Model                              7          1                                                        7.31000050E-05       *                     1_GWF-(1,13,2)
 Package                            7                                                                  -4.85577521E-05       *          1_GWF-SFR-1-(31)-qfrommvr
 ----------------------------------------------------------------------------------------------------------------------------------------------------------------


 7 CALLS TO NUMERICAL SOLUTION IN TIME STEP 2 STRESS PERIOD 3
 7 TOTAL ITERATIONS
 
    Solving:  Stress period:     3    Time step:     3
 

 SLN_1 OUTER ITERATION SUMMARY
 ----------------------------------------------------------------------------------------------------------------------------------------------------------------
                                OUTER      INNER  BACKTRACK  BACKTRACK        INCOMING        OUTGOING                    STEP   MAXIMUM CHANGE MODEL-(CELLID) OR
 OUTER ITERATION STEP       ITERATION  ITERATION       FLAG ITERATIONS        RESIDUAL        RESIDUAL  MAXIMUM CHANGE SUCCESS             MODEL-PACKAGE-(NUMBER)
 ----------------------------------------------------------------------------------------------------------------------------------------------------------------
 Backtracking                       1                     0          0       2.5473399       2.5473399                       *                                   
 Model                              1          1                                                       -3.32654048E-02                              1_GWF-(1,8,5)
 Backtracking                       2                     0          0      0.21432307      0.21432307                       *                                   
 Model                              2          1                                                        6.99041427E-03                             1_GWF-(1,13,2)
 Backtracking                       3                     0          0      0.10793739      0.10793739                       *                                   
 Model                              3          1                                                        2.44411035E-03                             1_GWF-(1,13,2)
 Backtracking                       4                     0          0  8.34060071E-02  8.34060071E-02                       *                                   
 Model                              4          1                                                        8.46711924E-04                             1_GWF-(1,13,2)
 Backtracking                       5                     0          0  7.98865050E-02  7.98865050E-02                       *                                   
 Model                              5          1                                                        2.93337048E-04                             1_GWF-(1,13,2)
 Backtracking                       6                     0          0  7.94196073E-02  7.94196073E-02                       *                                   
 Model                              6          1                                                        1.01625476E-04                             1_GWF-(1,13,2)
 Backtracking                       7                     0          0  7.93503879E-02  7.93503879E-02                       *                                   
 Model                              7          1                                                        3.52077130E-05       *                     1_GWF-(1,13,2)
 Package                            7                                                                  -2.59096722E-05       *          1_GWF-SFR-1-(31)-qfrommvr
 ----------------------------------------------------------------------------------------------------------------------------------------------------------------


 7 CALLS TO NUMERICAL SOLUTION IN TIME STEP 3 STRESS PERIOD 3
 7 TOTAL ITERATIONS
 
    Solving:  Stress period:     3    Time step:     4
 

 SLN_1 OUTER ITERATION SUMMARY
 ----------------------------------------------------------------------------------------------------------------------------------------------------------------
                                OUTER      INNER  BACKTRACK  BACKTRACK        INCOMING        OUTGOING                    STEP   MAXIMUM CHANGE MODEL-(CELLID) OR
 OUTER ITERATION STEP       ITERATION  ITERATION       FLAG ITERATIONS        RESIDUAL        RESIDUAL  MAXIMUM CHANGE SUCCESS             MODEL-PACKAGE-(NUMBER)
 ----------------------------------------------------------------------------------------------------------------------------------------------------------------
 Backtracking                       1                     0          0       2.5396276       2.5396276                       *                                   
 Model                              1          1                                                       -3.29660997E-02                              1_GWF-(1,8,5)
 Backtracking                       2                     0          0      0.10110326      0.10110326                       *                                   
 Model                              2          1                                                        2.48920613E-03                             1_GWF-(1,13,2)
 Backtracking                       3                     0          0  8.24102594E-02  8.24102594E-02                       *                                   
 Model                              3          1                                                        7.63275395E-04                             1_GWF-(1,13,2)
[...]
 Backtracking                       3                     0          0      0.23215205      0.23215205                       *                                   
 Model                              3          1                                                        4.90963641E-03                              1_GWF-(1,8,8)
 Backtracking                       4                     0          0  9.90742174E-02  9.90742174E-02                       *                                   
 Model                              4          1                                                        1.73038719E-03                              1_GWF-(1,8,8)
 Backtracking                       5                     0          0  7.60426675E-02  7.60426675E-02                       *                                   
 Model                              5          1                                                        6.09761690E-04                              1_GWF-(1,8,8)
 Backtracking                       6                     0          0  7.32935931E-02  7.32935931E-02                       *                                   
 Model                              6          1                                                        2.14851136E-04                              1_GWF-(1,8,8)
 Backtracking                       7                     0          0  7.29868405E-02  7.29868405E-02                       *                                   
 Model                              7          1                                                        7.56996556E-05       *                      1_GWF-(1,8,8)
 Package                            7                                                                   6.06452124E-06       *            1_GWF-SFR-1-(31)-inflow
 ----------------------------------------------------------------------------------------------------------------------------------------------------------------


 7 CALLS TO NUMERICAL SOLUTION IN TIME STEP 10 STRESS PERIOD 24
 7 TOTAL ITERATIONS
 
    Solving:  Stress period:    24    Time step:    11
 

 SLN_1 OUTER ITERATION SUMMARY
 ----------------------------------------------------------------------------------------------------------------------------------------------------------------
                                OUTER      INNER  BACKTRACK  BACKTRACK        INCOMING        OUTGOING                    STEP   MAXIMUM CHANGE MODEL-(CELLID) OR
 OUTER ITERATION STEP       ITERATION  ITERATION       FLAG ITERATIONS        RESIDUAL        RESIDUAL  MAXIMUM CHANGE SUCCESS             MODEL-PACKAGE-(NUMBER)
 ----------------------------------------------------------------------------------------------------------------------------------------------------------------
 Backtracking                       1                     0          0       6.0579832       6.0579832                       *                                   
 Model                              1          1                                                        7.55247149E-02                              1_GWF-(2,6,5)
 Backtracking                       2                     0          0      0.80078692      0.80078692                       *                                   
 Model                              2          1                                                        1.33519669E-02                              1_GWF-(1,8,8)
 Backtracking                       3                     0          0      0.22044107      0.22044107                       *                                   
 Model                              3          1                                                        4.70774527E-03                              1_GWF-(1,8,8)
 Backtracking                       4                     0          0  9.60258828E-02  9.60258828E-02                       *                                   
 Model                              4          1                                                        1.65920881E-03                              1_GWF-(1,8,8)
 Backtracking                       5                     0          0  7.55686634E-02  7.55686634E-02                       *                                   
 Model                              5          1                                                        5.84664260E-04                              1_GWF-(1,8,8)
 Backtracking                       6                     0          0  7.32222650E-02  7.32222650E-02                       *                                   
 Model                              6          1                                                        2.06000291E-04                              1_GWF-(1,8,8)
 Backtracking                       7                     0          0  7.29777538E-02  7.29777538E-02                       *                                   
 Model                              7          1                                                        7.25777717E-05       *                      1_GWF-(1,8,8)
 Package                            7                                                                   5.98595183E-06       *            1_GWF-SFR-1-(31)-inflow
 ----------------------------------------------------------------------------------------------------------------------------------------------------------------


 7 CALLS TO NUMERICAL SOLUTION IN TIME STEP 11 STRESS PERIOD 24
 7 TOTAL ITERATIONS
 
    Solving:  Stress period:    24    Time step:    12
 

 SLN_1 OUTER ITERATION SUMMARY
 ----------------------------------------------------------------------------------------------------------------------------------------------------------------
                                OUTER      INNER  BACKTRACK  BACKTRACK        INCOMING        OUTGOING                    STEP   MAXIMUM CHANGE MODEL-(CELLID) OR
 OUTER ITERATION STEP       ITERATION  ITERATION       FLAG ITERATIONS        RESIDUAL        RESIDUAL  MAXIMUM CHANGE SUCCESS             MODEL-PACKAGE-(NUMBER)
 ----------------------------------------------------------------------------------------------------------------------------------------------------------------
 Backtracking                       1                     0          0       5.9890912       5.9890912                       *                                   
 Model                              1          1                                                        4.09224167E-02                             1_GWF-(1,10,4)
 Backtracking                       2                     0          0      0.77363444      0.77363444                       *                                   
 Model                              2          1                                                        1.27954166E-02                              1_GWF-(1,8,8)
 Backtracking                       3                     0          0      0.21010100      0.21010100                       *                                   
 Model                              3          1                                                        4.49521791E-03                              1_GWF-(1,8,8)
 Backtracking                       4                     0          0  9.32918417E-02  9.32918417E-02                       *                                   
 Model                              4          1                                                        1.57850997E-03                              1_GWF-(1,8,8)
 Backtracking                       5                     0          0  7.51619073E-02  7.51619073E-02                       *                                   
 Model                              5          1                                                        5.54179714E-04                              1_GWF-(1,8,8)
 Backtracking                       6                     0          0  7.31751443E-02  7.31751443E-02                       *                                   
 Model                              6          1                                                        1.94537718E-04                              1_GWF-(1,8,8)
 Backtracking                       7                     0          0  7.29745096E-02  7.29745096E-02                       *                                   
 Model                              7          1                                                        6.82854621E-05       *                      1_GWF-(1,8,8)
 Package                            7                                                                   6.03984541E-06       *            1_GWF-SFR-1-(31)-inflow
 ----------------------------------------------------------------------------------------------------------------------------------------------------------------


 7 CALLS TO NUMERICAL SOLUTION IN TIME STEP 12 STRESS PERIOD 24
 7 TOTAL ITERATIONS
 
    Solving:  Stress period:    24    Time step:    13
 

 SLN_1 OUTER ITERATION SUMMARY
 ----------------------------------------------------------------------------------------------------------------------------------------------------------------
                                OUTER      INNER  BACKTRACK  BACKTRACK        INCOMING        OUTGOING                    STEP   MAXIMUM CHANGE MODEL-(CELLID) OR
 OUTER ITERATION STEP       ITERATION  ITERATION       FLAG ITERATIONS        RESIDUAL        RESIDUAL  MAXIMUM CHANGE SUCCESS             MODEL-PACKAGE-(NUMBER)
 ----------------------------------------------------------------------------------------------------------------------------------------------------------------
 Backtracking                       1                     0          0       5.8925311       5.8925311                       *                                   
 Model                              1          1                                                        3.98728211E-02                             1_GWF-(1,10,4)
 Backtracking                       2                     0          0      0.75455604      0.75455604                       *                                   
 Model                              2          1                                                        1.22977041E-02                              1_GWF-(1,8,8)
 Backtracking                       3                     0          0      0.20488676      0.20488676                       *                                   
 Model                              3          1                                                        4.30635183E-03                              1_GWF-(1,8,8)
 Backtracking                       4                     0          0  9.22595927E-02  9.22595927E-02                       *                                   
 Model                              4          1                                                        1.50726040E-03                              1_GWF-(1,8,8)
 Backtracking                       5                     0          0  7.50504141E-02  7.50504141E-02                       *                                   
 Model                              5          1                                                        5.27436764E-04                              1_GWF-(1,8,8)
 Backtracking                       6                     0          0  7.31692474E-02  7.31692474E-02                       *                                   
 Model                              6          1                                                        1.84544282E-04                              1_GWF-(1,8,8)
 Backtracking                       7                     0          0  7.29771012E-02  7.29771012E-02                       *                                   
 Model                              7          1                                                        6.45655767E-05       *                      1_GWF-(1,8,8)
 Package                            7                                                                   5.96124922E-06       *            1_GWF-SFR-1-(31)-inflow
 ----------------------------------------------------------------------------------------------------------------------------------------------------------------


 7 CALLS TO NUMERICAL SOLUTION IN TIME STEP 13 STRESS PERIOD 24
 7 TOTAL ITERATIONS
 
    Solving:  Stress period:    24    Time step:    14
 

 SLN_1 OUTER ITERATION SUMMARY
 ----------------------------------------------------------------------------------------------------------------------------------------------------------------
                                OUTER      INNER  BACKTRACK  BACKTRACK        INCOMING        OUTGOING                    STEP   MAXIMUM CHANGE MODEL-(CELLID) OR
 OUTER ITERATION STEP       ITERATION  ITERATION       FLAG ITERATIONS        RESIDUAL        RESIDUAL  MAXIMUM CHANGE SUCCESS             MODEL-PACKAGE-(NUMBER)
 ----------------------------------------------------------------------------------------------------------------------------------------------------------------
 Backtracking                       1                     0          0       5.8010258       5.8010258                       *                                   
 Model                              1          1                                                        3.88611328E-02                             1_GWF-(1,10,4)
 Backtracking                       2                     0          0      0.73626149      0.73626149                       *                                   
 Model                              2          1                                                        1.18137926E-02                              1_GWF-(1,8,8)
 Backtracking                       3                     0          0      0.19994988      0.19994988                       *                                   
 Model                              3          1                                                        4.12340745E-03                              1_GWF-(1,8,8)
 Backtracking                       4                     0          0  9.13745375E-02  9.13745375E-02                       *                                   
 Model                              4          1                                                        1.43850726E-03                              1_GWF-(1,8,8)
 Backtracking                       5                     0          0  7.49898209E-02  7.49898209E-02                       *                                   
 Model                              5          1                                                        5.01729667E-04                              1_GWF-(1,8,8)
 Backtracking                       6                     0          0  7.31767331E-02  7.31767331E-02                       *                                   
 Model                              6          1                                                        1.74974749E-04                              1_GWF-(1,8,8)
 Backtracking                       7                     0          0  7.29824999E-02  7.29824999E-02                       *                                   
 Model                              7          1                                                        6.10171007E-05       *                      1_GWF-(1,8,8)
 Package                            7                                                                   5.89193912E-06       *            1_GWF-SFR-1-(31)-inflow
 ----------------------------------------------------------------------------------------------------------------------------------------------------------------


 7 CALLS TO NUMERICAL SOLUTION IN TIME STEP 14 STRESS PERIOD 24
 7 TOTAL ITERATIONS
 
    Solving:  Stress period:    24    Time step:    15
 

 SLN_1 OUTER ITERATION SUMMARY
 ----------------------------------------------------------------------------------------------------------------------------------------------------------------
                                OUTER      INNER  BACKTRACK  BACKTRACK        INCOMING        OUTGOING                    STEP   MAXIMUM CHANGE MODEL-(CELLID) OR
 OUTER ITERATION STEP       ITERATION  ITERATION       FLAG ITERATIONS        RESIDUAL        RESIDUAL  MAXIMUM CHANGE SUCCESS             MODEL-PACKAGE-(NUMBER)
 ----------------------------------------------------------------------------------------------------------------------------------------------------------------
 Backtracking                       1                     0          0       5.7209973       5.7209973                       *                                   
 Model                              1          1                                                        3.78788888E-02                             1_GWF-(1,10,4)
 Backtracking                       2                     0          0      0.72425903      0.72425903                       *                                   
 Model                              2          1                                                        1.13416642E-02                             1_GWF-(1,10,4)
 Backtracking                       3                     0          0      0.19711862      0.19711862                       *                                   
 Model                              3          1                                                        3.95165844E-03                              1_GWF-(1,8,8)
 Backtracking                       4                     0          0  9.07232266E-02  9.07232266E-02                       *                                   
 Model                              4          1                                                        1.37858238E-03                              1_GWF-(1,8,8)
 Backtracking                       5                     0          0  7.48763887E-02  7.48763887E-02                       *                                   
 Model                              5          1                                                        4.80823717E-04                              1_GWF-(1,8,8)
 Backtracking                       6                     0          0  7.31599569E-02  7.31599569E-02                       *                                   
 Model                              6          1                                                        1.67681958E-04                              1_GWF-(1,8,8)
 Backtracking                       7                     0          0  7.29816496E-02  7.29816496E-02                       *                                   
 Model                              7          1                                                        5.84732858E-05       *                      1_GWF-(1,8,8)
 Package                            7                                                                   5.84381424E-06       *            1_GWF-SFR-1-(31)-inflow
 ----------------------------------------------------------------------------------------------------------------------------------------------------------------


 7 CALLS TO NUMERICAL SOLUTION IN TIME STEP 15 STRESS PERIOD 24
 7 TOTAL ITERATIONS

 MEMORY MANAGER TOTAL STORAGE BY DATA TYPE, IN MEGABYTES
 -------------------------------
                    ALLOCATED   
 DATA TYPE           MEMORY     
 -------------------------------
 Character        1.09040000E-02
 Logical          4.40000000E-05
 Integer          0.11787200    
 Real             3.4845440     
 -------------------------------
 Total            3.6133640     
 Virtual          0.0000000     
 -------------------------------


 
 Run end date and time (yyyy/mm/dd hh:mm:ss): 2025/11/12  8:13:08
 Elapsed run time: 13.721 Seconds

WARNING REPORT:

  1. OPTIONS BLOCK VARIABLE 'SIMULATE_GWSEEP' IN FILE 'e13.uzf' WAS
     DEPRECATED IN VERSION 6.5.0. USE DRN PACKAGE TO SIMULATE GROUNDWATER
     DISCHARGE TO LAND SURFACE INSTEAD.
 Normal termination of simulation.
