                                   MODFLOW 6
                U.S. GEOLOGICAL SURVEY MODULAR HYDROLOGIC MODEL
                          GROUNDWATER FLOW MODEL (GWF)
                            VERSION 6.6.1 02/10/2025

   MODFLOW 6 compiled Feb 14 2025 13:40:10 with Intel(R) Fortran Intel(R) 64
   Compiler Classic for applications running on Intel(R) 64, Version 2021.7.0
                             Build 20220726_000000

This software has been approved for release by the U.S. Geological 
Survey (USGS). Although the software has been subjected to rigorous 
review, the USGS reserves the right to update the software as needed 
pursuant to further analysis and review. No warranty, expressed or 
implied, is made by the USGS or the U.S. Government as to the 
functionality of the software and related material nor shall the 
fact of release constitute any such warranty. Furthermore, the 
software is released on condition that neither the USGS nor the U.S. 
Government shall be held liable for any damages resulting from its 
authorized or unauthorized use. Also refer to the USGS Water 
Resources Software User Rights Notice for complete use, copyright, 
and distribution information.


As a work of the United States Government, this USGS product is 
in the public domain within the United States. You can copy, 
modify, distribute, and perform the work, even for commercial 
purposes, all without asking permission. Additionally, USGS 
waives copyright and related rights in the work worldwide 
through CC0 1.0 Universal Public Domain Dedication 
(https://creativecommons.org/publicdomain/zero/1.0/).

The following GNU Lesser General Public License (LGPL) libraries
are used in this USGS product:

    SPARSKIT version 2.0
      ilut, luson, and qsplit 
      (https://www-users.cse.umn.edu/~saad/software/SPARSKIT/)

    RCM - Reverse Cuthill McKee Ordering
      (https://people.math.sc.edu/Burkardt/f_src/rcm/rcm.html)

    BLAS - Basic Linear Algebra Subprograms Level 1
      (https://people.math.sc.edu/Burkardt/f_src/blas1_d/blas1_d.html)

    SPARSEKIT - Sparse Matrix Utility Package
      amux, dperm, dvperm, rperm, and cperm
      (https://people.sc.fsu.edu/~jburkardt/f77_src/sparsekit/sparsekit.html)

The following BSD-3 License libraries are used in this USGS product:

    Modern Fortran DAG Library
      Copyright (c) 2018, Jacob Williams
      All rights reserved.
      (https://github.com/jacobwilliams/daglib)

MODFLOW 6 compiler options: /O2 /heap-arrays:0 /fpe:0 /traceback /nologo /fpp
/c /module:win64\mod_mf6\ /object:win64\obj_mf6\

System command used to initiate simulation:
C:\Users\gross.DESKTOP-AIRQM2M\anaconda3\Scripts\mf6.exe

MODFLOW was compiled using uniform precision.

Real Variables
  KIND: 8
  TINY (smallest non-zero value):    2.225074-308
  HUGE (largest value):    1.797693+308
  PRECISION: 15
  SIZE IN BITS: 64

Integer Variables
  KIND: 4
  HUGE (largest value): 2147483647
  SIZE IN BITS: 32

Long Integer Variables
  KIND: 8
  HUGE (largest value): 9223372036854775807
  SIZE IN BITS: 64

Logical Variables
  KIND: 4
  SIZE IN BITS: 32
 
 NAMEFILE OPTIONS:
    NEWTON-RAPHSON method enabled for the model.
    STRESS PACKAGE INPUT WILL BE PRINTED FOR ALL MODEL STRESS PACKAGES
    FLOWS WILL BE SAVED TO BUDGET FILE SPECIFIED IN OUTPUT CONTROL
 END NAMEFILE OPTIONS:

 DIS -- STRUCTURED GRID DISCRETIZATION PACKAGE, VERSION 2 : 3/27/2014 - INPUT READ FROM MEMPATH: __INPUT__/SHELLMOUND/DIS                          


 NPF -- NODE PROPERTY FLOW PACKAGE, VERSION 1, 3/30/2015 INPUT READ FROM MEMPATH: __INPUT__/SHELLMOUND/NPF                          


 IC -- Initial Conditions Package, Version 8, 3/28/2015 input read from mempath: __INPUT__/SHELLMOUND/IC                           


 Setting Discretization Options
    Model length unit [0=UND, 1=FEET, 2=METERS, 3=CENTIMETERS] set as 2
    XORIGIN = 500955.0000000000
    YORIGIN = 1175285.000000000
    ANGROT = .000000000000000
 End Setting Discretization Options

 Setting Discretization Dimensions
    NLAY = 13
    NROW = 30
    NCOL = 35
 End Setting Discretization Dimensions

 Setting Discretization Griddata
    DELR set from input file
    DELC set from input file
    TOP set from input file
    BOTM set from input file
    IDOMAIN set from input file
 End Setting Discretization Griddata


 The specified IDOMAIN results in a reduced number of cells.
 Number of user nodes: 13650
 Number of nodes in solution: 9149


 Setting NPF Options
    Cell-by-cell flow information will be saved to binary file whenever ICBCFL is not zero.
 End Setting NPF Options

 Setting NPF Griddata
    ICELLTYPE set from input file
    K set from input file
    K33 set from input file
    K22 not provided.  Setting K22 = K.
 End Setting NPF Griddata


 WEL   -- WEL PACKAGE, VERSION 8, 2/22/2014 INPUT READ FROM MEMPATH: __INPUT__/SHELLMOUND/WEL_0                        

 PROCESSING WEL BASE OPTIONS
    FLOWS WILL BE SAVED TO BUDGET FILE SPECIFIED IN OUTPUT CONTROL
    LISTS OF WEL CELLS WILL BE PRINTED.
    WEL FLOWS WILL BE PRINTED TO LISTING FILE.
    WEL BOUNDARIES HAVE NAMES IN LAST COLUMN.
 END OF WEL BASE OPTIONS

 OPENED shellmound.wel.obs
 FILE TYPE:OBS   UNIT 1112   STATUS:OLD                 
 FORMAT:FORMATTED              ACCESS:SEQUENTIAL          
 ACTION:READ                


 PROCESSING WEL OPTIONS
 END OF WEL OPTIONS

 PROCESSING WEL BASE DIMENSIONS
    MAXBOUND =     337
 END OF WEL BASE DIMENSIONS

 DRN   -- DRN PACKAGE, VERSION 8, 2/22/2014 INPUT READ FROM MEMPATH: __INPUT__/SHELLMOUND/DRN_0                        

 PROCESSING DRN BASE OPTIONS
    FLOWS WILL BE SAVED TO BUDGET FILE SPECIFIED IN OUTPUT CONTROL
    DRN BOUNDARIES HAVE NAMES IN LAST COLUMN.
 END OF DRN BASE OPTIONS

 OPENED shellmound.drn.obs
 FILE TYPE:OBS   UNIT 1113   STATUS:OLD                 
 FORMAT:FORMATTED              ACCESS:SEQUENTIAL          
 ACTION:READ                


 PROCESSING DRN OPTIONS
 END OF DRN OPTIONS

 PROCESSING DRN BASE DIMENSIONS
    MAXBOUND =      21
 END OF DRN BASE DIMENSIONS

 RIV   -- RIV PACKAGE, VERSION 8, 2/22/2014 INPUT READ FROM MEMPATH: __INPUT__/SHELLMOUND/RIV_0                        

 PROCESSING RIV BASE OPTIONS
    FLOWS WILL BE SAVED TO BUDGET FILE SPECIFIED IN OUTPUT CONTROL
    LISTS OF RIV CELLS WILL BE PRINTED.
    RIV FLOWS WILL BE PRINTED TO LISTING FILE.
    RIV BOUNDARIES HAVE NAMES IN LAST COLUMN.
 END OF RIV BASE OPTIONS

 OPENED shellmound.riv.obs
 FILE TYPE:OBS   UNIT 1114   STATUS:OLD                 
 FORMAT:FORMATTED              ACCESS:SEQUENTIAL          
 ACTION:READ                


 PROCESSING RIV OPTIONS
 END OF RIV OPTIONS

 PROCESSING RIV BASE DIMENSIONS
    MAXBOUND =      62
 END OF RIV BASE DIMENSIONS

 GHB   -- GHB PACKAGE, VERSION 8, 2/22/2014 INPUT READ FROM MEMPATH: __INPUT__/SHELLMOUND/GHB_0                        

 PROCESSING GHB BASE OPTIONS
    FLOWS WILL BE SAVED TO BUDGET FILE SPECIFIED IN OUTPUT CONTROL
    GHB BOUNDARIES HAVE NAMES IN LAST COLUMN.
 END OF GHB BASE OPTIONS

 PROCESSING GHB OPTIONS
 END OF GHB OPTIONS

 PROCESSING GHB BASE DIMENSIONS
    MAXBOUND =       8
 END OF GHB BASE DIMENSIONS

 RCH   -- RCH PACKAGE, VERSION 8, 2/22/2014 INPUT READ FROM MEMPATH: __INPUT__/SHELLMOUND/RCHA_0                       

 PROCESSING RCH BASE OPTIONS
    FLOWS WILL BE SAVED TO BUDGET FILE SPECIFIED IN OUTPUT CONTROL
    LISTS OF RCH CELLS WILL BE PRINTED.
 END OF RCH BASE OPTIONS

 PROCESSING RCHA OPTIONS
    RECHARGE INPUT WILL BE READ AS ARRAY(S).
 END OF RCHA OPTIONS

 CHD   -- CHD PACKAGE, VERSION 8, 2/22/2014 INPUT READ FROM MEMPATH: __INPUT__/SHELLMOUND/CHD_0                        

 PROCESSING CHD BASE OPTIONS
    FLOWS WILL BE SAVED TO BUDGET FILE SPECIFIED IN OUTPUT CONTROL
    CHD BOUNDARIES HAVE NAMES IN LAST COLUMN.
 END OF CHD BASE OPTIONS

 OPENED shellmound.chd.obs
 FILE TYPE:OBS   UNIT 1115   STATUS:OLD                 
 FORMAT:FORMATTED              ACCESS:SEQUENTIAL          
 ACTION:READ                


 PROCESSING CHD BASE DIMENSIONS
    MAXBOUND =       7
 END OF CHD BASE DIMENSIONS

 SFR   -- SFR PACKAGE, VERSION 8, 2/22/2014 INPUT READ FROM UNIT 1109
 # shellmound model version 0.post69.dev0+g5e43358
 # File created by modflow-setup version 0.6.0 at 2025-11-21 16:36:05
 # MODFLOW-6 SFR input; created by SFRmaker v. 0.11.3.post37+gad8cb97

 PROCESSING SFR OPTIONS
    FLOWS WILL BE SAVED TO BUDGET FILE SPECIFIED IN OUTPUT CONTROL
    MOVER OPTION ENABLED

 OPENED shellmound.sfr.out.bin
 FILE TYPE:DATA(BINARY)   UNIT 1116   STATUS:REPLACE             
 FORMAT:UNFORMATTED            ACCESS:STREAM              
 ACTION:READWRITE           

    SFR  BUDGET  WILL BE SAVED TO FILE: shellmound.sfr.out.bin
    OPENED ON UNIT: 1116

 OPENED shellmound.sfr.stage.bin
 FILE TYPE:DATA(BINARY)   UNIT 1117   STATUS:REPLACE             
 FORMAT:UNFORMATTED            ACCESS:STREAM              
 ACTION:READWRITE           

    SFR  STAGE  WILL BE SAVED TO FILE: shellmound.sfr.stage.bin
    OPENED ON UNIT: 1117

 OPENED shellmound.sfr.obs
 FILE TYPE:OBS   UNIT 1118   STATUS:OLD                 
 FORMAT:FORMATTED              ACCESS:SEQUENTIAL          
 ACTION:READ                

    AUXILIARY SFR VARIABLE: LINE_ID         
 END OF SFR OPTIONS

 PROCESSING SFR DIMENSIONS
    NREACHES = 200
 END OF SFR DIMENSIONS

 OPENED external\shellmound_packagedata.dat
 FILE TYPE:OPEN/CLOSE   UNIT 1119   STATUS:OLD                 
 FORMAT:FORMATTED              ACCESS:SEQUENTIAL          
 ACTION:READ                


 PROCESSING SFR PACKAGEDATA
 #rno k i j rlen rwid rgrd rtp rbth rhk man ncon ustrf ndv line_id
 END OF SFR PACKAGEDATA

 PROCESSING SFR CONNECTIONDATA
 END OF SFR CONNECTIONDATA
    STRT set from input file

 STO -- STORAGE PACKAGE, VERSION 1, 5/19/2014 INPUT READ FROM MEMPATH: __INPUT__/SHELLMOUND/STO                          


 PROCESSING STORAGE OPTIONS
    CELL-BY-CELL FLOW INFORMATION WILL BE SAVED TO BINARY FILE WHENEVER ICBCFL IS NOT ZERO.
 END OF STORAGE OPTIONS

The observation utility is active for "SHELLMOUND"
 # shellmound model version 0.post69.dev0+g5e43358
 # File generated by Flopy version 3.10.0.dev1 on 11/21/2025 at 16:36:05.
 # via modflow-setup version 0.6.0 at 2025-11-21 16:36:05

Processing observation options:

Text output number of digits of precision set to: 10
The PRINT_INPUT option has been specified.


 OBSERVATIONS READ FROM FILE "shellmound.obs"
 ----------------------------------------------------------------------------------------------------------------------------------------------------------------------------------------------------------------------------
 NAME                                     TYPE                                       TIME         LOCATION DATA                              OUTPUT FILENAME                                                                 
 ----------------------------------------------------------------------------------------------------------------------------------------------------------------------------------------------------------------------------
 USGS:333240090155001                     CONTINUOUS  HEAD                           ALL TIMES    "  4 26 28"                                shellmound.head.obs                                                             
 USGS:333240090155001                     CONTINUOUS  HEAD                           ALL TIMES    "  5 26 28"                                shellmound.head.obs                                                             
 USGS:333240090155001                     CONTINUOUS  HEAD                           ALL TIMES    "  6 26 28"                                shellmound.head.obs                                                             
 USGS:333240090155001                     CONTINUOUS  HEAD                           ALL TIMES    "  7 26 28"                                shellmound.head.obs                                                             
 USGS:333240090155001                     CONTINUOUS  HEAD                           ALL TIMES    "  8 26 28"                                shellmound.head.obs                                                             
 USGS:333240090155001                     CONTINUOUS  HEAD                           ALL TIMES    "  9 26 28"                                shellmound.head.obs                                                             
 USGS:333240090155001                     CONTINUOUS  HEAD                           ALL TIMES    "  10 26 28"                               shellmound.head.obs                                                             
 USGS:333240090155001                     CONTINUOUS  HEAD                           ALL TIMES    "  11 26 28"                               shellmound.head.obs                                                             
 USGS:333240090155001                     CONTINUOUS  HEAD                           ALL TIMES    "  12 26 28"                               shellmound.head.obs                                                             
 USGS:333240090155001                     CONTINUOUS  HEAD                           ALL TIMES    "  13 26 28"                               shellmound.head.obs                                                             
 USGS:333350090215801                     CONTINUOUS  HEAD                           ALL TIMES    "  4 24 19"                                shellmound.head.obs                                                             
 USGS:333350090215801                     CONTINUOUS  HEAD                           ALL TIMES    "  5 24 19"                                shellmound.head.obs                                                             
 USGS:333350090215801                     CONTINUOUS  HEAD                           ALL TIMES    "  6 24 19"                                shellmound.head.obs                                                             
 USGS:333350090215801                     CONTINUOUS  HEAD                           ALL TIMES    "  7 24 19"                                shellmound.head.obs                                                             
 USGS:333350090215801                     CONTINUOUS  HEAD                           ALL TIMES    "  8 24 19"                                shellmound.head.obs                                                             
 USGS:333350090215801                     CONTINUOUS  HEAD                           ALL TIMES    "  9 24 19"                                shellmound.head.obs                                                             
 USGS:333350090215801                     CONTINUOUS  HEAD                           ALL TIMES    "  10 24 19"                               shellmound.head.obs                                                             
 USGS:333350090215801                     CONTINUOUS  HEAD                           ALL TIMES    "  11 24 19"                               shellmound.head.obs                                                             
 USGS:333350090215801                     CONTINUOUS  HEAD                           ALL TIMES    "  12 24 19"                               shellmound.head.obs                                                             
 USGS:333350090215801                     CONTINUOUS  HEAD                           ALL TIMES    "  13 24 19"                               shellmound.head.obs                                                             
 USGS:333351090291402                     CONTINUOUS  HEAD                           ALL TIMES    "  1 25 8"                                 shellmound.head.obs                                                             
 USGS:333351090291402                     CONTINUOUS  HEAD                           ALL TIMES    "  2 25 8"                                 shellmound.head.obs                                                             
 USGS:333351090291402                     CONTINUOUS  HEAD                           ALL TIMES    "  3 25 8"                                 shellmound.head.obs                                                             
 USGS:333351090291402                     CONTINUOUS  HEAD                           ALL TIMES    "  4 25 8"                                 shellmound.head.obs                                                             
 USGS:333351090291402                     CONTINUOUS  HEAD                           ALL TIMES    "  5 25 8"                                 shellmound.head.obs                                                             
 USGS:333351090291402                     CONTINUOUS  HEAD                           ALL TIMES    "  6 25 8"                                 shellmound.head.obs                                                             
 USGS:333351090291402                     CONTINUOUS  HEAD                           ALL TIMES    "  7 25 8"                                 shellmound.head.obs                                                             
 USGS:333351090291402                     CONTINUOUS  HEAD                           ALL TIMES    "  8 25 8"                                 shellmound.head.obs                                                             
 USGS:333351090291402                     CONTINUOUS  HEAD                           ALL TIMES    "  9 25 8"                                 shellmound.head.obs                                                             
 USGS:333351090291402                     CONTINUOUS  HEAD                           ALL TIMES    "  10 25 8"                                shellmound.head.obs                                                             
 USGS:333351090291402                     CONTINUOUS  HEAD                           ALL TIMES    "  11 25 8"                                shellmound.head.obs                                                             
 USGS:333351090291402                     CONTINUOUS  HEAD                           ALL TIMES    "  12 25 8"                                shellmound.head.obs                                                             
 USGS:333351090291402                     CONTINUOUS  HEAD                           ALL TIMES    "  13 25 8"                                shellmound.head.obs                                                             
 USGS:333411090281501                     CONTINUOUS  HEAD                           ALL TIMES    "  1 24 9"                                 shellmound.head.obs                                                             
 USGS:333411090281501                     CONTINUOUS  HEAD                           ALL TIMES    "  2 24 9"                                 shellmound.head.obs                                                             
 USGS:333411090281501                     CONTINUOUS  HEAD                           ALL TIMES    "  3 24 9"                                 shellmound.head.obs                                                             
 USGS:333411090281501                     CONTINUOUS  HEAD                           ALL TIMES    "  4 24 9"                                 shellmound.head.obs                                                             
 USGS:333411090281501                     CONTINUOUS  HEAD                           ALL TIMES    "  5 24 9"                                 shellmound.head.obs                                                             
 USGS:333411090281501                     CONTINUOUS  HEAD                           ALL TIMES    "  6 24 9"                                 shellmound.head.obs                                                             
 USGS:333411090281501                     CONTINUOUS  HEAD                           ALL TIMES    "  7 24 9"                                 shellmound.head.obs                                                             
 USGS:333411090281501                     CONTINUOUS  HEAD                           ALL TIMES    "  8 24 9"                                 shellmound.head.obs                                                             
 USGS:333411090281501                     CONTINUOUS  HEAD                           ALL TIMES    "  9 24 9"                                 shellmound.head.obs                                                             
 USGS:333411090281501                     CONTINUOUS  HEAD                           ALL TIMES    "  10 24 9"                                shellmound.head.obs                                                             
 USGS:333411090281501                     CONTINUOUS  HEAD                           ALL TIMES    "  11 24 9"                                shellmound.head.obs                                                             
 USGS:333411090281501                     CONTINUOUS  HEAD                           ALL TIMES    "  12 24 9"                                shellmound.head.obs                                                             
 USGS:333411090281501                     CONTINUOUS  HEAD                           ALL TIMES    "  13 24 9"                                shellmound.head.obs                                                             
 USGS:333427090294201                     CONTINUOUS  HEAD                           ALL TIMES    "  1 24 7"                                 shellmound.head.obs                                                             
 USGS:333427090294201                     CONTINUOUS  HEAD                           ALL TIMES    "  2 24 7"                                 shellmound.head.obs                                                             
 USGS:333427090294201                     CONTINUOUS  HEAD                           ALL TIMES    "  3 24 7"                                 shellmound.head.obs                                                             
 USGS:333427090294201                     CONTINUOUS  HEAD                           ALL TIMES    "  4 24 7"                                 shellmound.head.obs                                                             
 USGS:333427090294201                     CONTINUOUS  HEAD                           ALL TIMES    "  5 24 7"                                 shellmound.head.obs                                                             
 USGS:333427090294201                     CONTINUOUS  HEAD                           ALL TIMES    "  6 24 7"                                 shellmound.head.obs                                                             
 USGS:333427090294201                     CONTINUOUS  HEAD                           ALL TIMES    "  7 24 7"                                 shellmound.head.obs                                                             
 USGS:333427090294201                     CONTINUOUS  HEAD                           ALL TIMES    "  8 24 7"                                 shellmound.head.obs                                                             
 USGS:333427090294201                     CONTINUOUS  HEAD                           ALL TIMES    "  9 24 7"                                 shellmound.head.obs                                                             
 USGS:333427090294201                     CONTINUOUS  HEAD                           ALL TIMES    "  10 24 7"                                shellmound.head.obs                                                             
 USGS:333427090294201                     CONTINUOUS  HEAD                           ALL TIMES    "  11 24 7"                                shellmound.head.obs                                                             
 USGS:333427090294201                     CONTINUOUS  HEAD                           ALL TIMES    "  12 24 7"                                shellmound.head.obs                                                             
 USGS:333427090294201                     CONTINUOUS  HEAD                           ALL TIMES    "  13 24 7"                                shellmound.head.obs                                                             
 USGS:333427090294202                     CONTINUOUS  HEAD                           ALL TIMES    "  1 24 7"                                 shellmound.head.obs                                                             
 USGS:333427090294202                     CONTINUOUS  HEAD                           ALL TIMES    "  2 24 7"                                 shellmound.head.obs                                                             
 USGS:333427090294202                     CONTINUOUS  HEAD                           ALL TIMES    "  3 24 7"                                 shellmound.head.obs                                                             
 USGS:333427090294202                     CONTINUOUS  HEAD                           ALL TIMES    "  4 24 7"                                 shellmound.head.obs                                                             
 USGS:333427090294202                     CONTINUOUS  HEAD                           ALL TIMES    "  5 24 7"                                 shellmound.head.obs                                                             
 USGS:333427090294202                     CONTINUOUS  HEAD                           ALL TIMES    "  6 24 7"                                 shellmound.head.obs                                                             
 USGS:333427090294202                     CONTINUOUS  HEAD                           ALL TIMES    "  7 24 7"                                 shellmound.head.obs                                                             
 USGS:333427090294202                     CONTINUOUS  HEAD                           ALL TIMES    "  8 24 7"                                 shellmound.head.obs                                                             
 USGS:333427090294202                     CONTINUOUS  HEAD                           ALL TIMES    "  9 24 7"                                 shellmound.head.obs                                                             
 USGS:333427090294202                     CONTINUOUS  HEAD                           ALL TIMES    "  10 24 7"                                shellmound.head.obs                                                             
 USGS:333427090294202                     CONTINUOUS  HEAD                           ALL TIMES    "  11 24 7"                                shellmound.head.obs                                                             
 USGS:333427090294202                     CONTINUOUS  HEAD                           ALL TIMES    "  12 24 7"                                shellmound.head.obs                                                             
 USGS:333427090294202                     CONTINUOUS  HEAD                           ALL TIMES    "  13 24 7"                                shellmound.head.obs                                                             
 USGS:333508090313601                     CONTINUOUS  HEAD                           ALL TIMES    "  1 23 4"                                 shellmound.head.obs                                                             
 USGS:333508090313601                     CONTINUOUS  HEAD                           ALL TIMES    "  2 23 4"                                 shellmound.head.obs                                                             
 USGS:333508090313601                     CONTINUOUS  HEAD                           ALL TIMES    "  3 23 4"                                 shellmound.head.obs                                                             
 USGS:333508090313601                     CONTINUOUS  HEAD                           ALL TIMES    "  4 23 4"                                 shellmound.head.obs                                                             
 USGS:333508090313601                     CONTINUOUS  HEAD                           ALL TIMES    "  5 23 4"                                 shellmound.head.obs                                                             
 USGS:333508090313601                     CONTINUOUS  HEAD                           ALL TIMES    "  6 23 4"                                 shellmound.head.obs                                                             
 USGS:333508090313601                     CONTINUOUS  HEAD                           ALL TIMES    "  7 23 4"                                 shellmound.head.obs                                                             
 USGS:333508090313601                     CONTINUOUS  HEAD                           ALL TIMES    "  8 23 4"                                 shellmound.head.obs                                                             
 USGS:333508090313601                     CONTINUOUS  HEAD                           ALL TIMES    "  9 23 4"                                 shellmound.head.obs                                                             
 USGS:333508090313601                     CONTINUOUS  HEAD                           ALL TIMES    "  10 23 4"                                shellmound.head.obs                                                             
 USGS:333508090313601                     CONTINUOUS  HEAD                           ALL TIMES    "  11 23 4"                                shellmound.head.obs                                                             
 USGS:333508090313601                     CONTINUOUS  HEAD                           ALL TIMES    "  12 23 4"                                shellmound.head.obs                                                             
 USGS:333508090313601                     CONTINUOUS  HEAD                           ALL TIMES    "  13 23 4"                                shellmound.head.obs                                                             
 USGS:333600090205401                     CONTINUOUS  HEAD                           ALL TIMES    "  4 20 20"                                shellmound.head.obs                                                             
 USGS:333600090205401                     CONTINUOUS  HEAD                           ALL TIMES    "  5 20 20"                                shellmound.head.obs                                                             
 USGS:333600090205401                     CONTINUOUS  HEAD                           ALL TIMES    "  6 20 20"                                shellmound.head.obs                                                             
 USGS:333600090205401                     CONTINUOUS  HEAD                           ALL TIMES    "  7 20 20"                                shellmound.head.obs                                                             
 USGS:333600090205401                     CONTINUOUS  HEAD                           ALL TIMES    "  8 20 20"                                shellmound.head.obs                                                             
 USGS:333600090205401                     CONTINUOUS  HEAD                           ALL TIMES    "  9 20 20"                                shellmound.head.obs                                                             
 USGS:333600090205401                     CONTINUOUS  HEAD                           ALL TIMES    "  10 20 20"                               shellmound.head.obs                                                             
 USGS:333600090205401                     CONTINUOUS  HEAD                           ALL TIMES    "  11 20 20"                               shellmound.head.obs                                                             
 USGS:333600090205401                     CONTINUOUS  HEAD                           ALL TIMES    "  12 20 20"                               shellmound.head.obs                                                             
 USGS:333600090205401                     CONTINUOUS  HEAD                           ALL TIMES    "  13 20 20"                               shellmound.head.obs                                                             
 USGS:333606090194801                     CONTINUOUS  HEAD                           ALL TIMES    "  4 20 22"                                shellmound.head.obs                                                             
 USGS:333606090194801                     CONTINUOUS  HEAD                           ALL TIMES    "  5 20 22"                                shellmound.head.obs                                                             
 USGS:333606090194801                     CONTINUOUS  HEAD                           ALL TIMES    "  6 20 22"                                shellmound.head.obs                                                             
 USGS:333606090194801                     CONTINUOUS  HEAD                           ALL TIMES    "  7 20 22"                                shellmound.head.obs                                                             
 USGS:333606090194801                     CONTINUOUS  HEAD                           ALL TIMES    "  8 20 22"                                shellmound.head.obs                                                             
 USGS:333606090194801                     CONTINUOUS  HEAD                           ALL TIMES    "  9 20 22"                                shellmound.head.obs                                                             
 USGS:333606090194801                     CONTINUOUS  HEAD                           ALL TIMES    "  10 20 22"                               shellmound.head.obs                                                             
 USGS:333606090194801                     CONTINUOUS  HEAD                           ALL TIMES    "  11 20 22"                               shellmound.head.obs                                                             
 USGS:333606090194801                     CONTINUOUS  HEAD                           ALL TIMES    "  12 20 22"                               shellmound.head.obs                                                             
 USGS:333606090194801                     CONTINUOUS  HEAD                           ALL TIMES    "  13 20 22"                               shellmound.head.obs                                                             
 USGS:333611090215901                     CONTINUOUS  HEAD                           ALL TIMES    "  4 20 18"                                shellmound.head.obs                                                             
 USGS:333611090215901                     CONTINUOUS  HEAD                           ALL TIMES    "  5 20 18"                                shellmound.head.obs                                                             
 USGS:333611090215901                     CONTINUOUS  HEAD                           ALL TIMES    "  6 20 18"                                shellmound.head.obs                                                             
 USGS:333611090215901                     CONTINUOUS  HEAD                           ALL TIMES    "  7 20 18"                                shellmound.head.obs                                                             
 USGS:333611090215901                     CONTINUOUS  HEAD                           ALL TIMES    "  8 20 18"                                shellmound.head.obs                                                             
 USGS:333611090215901                     CONTINUOUS  HEAD                           ALL TIMES    "  9 20 18"                                shellmound.head.obs                                                             
 USGS:333611090215901                     CONTINUOUS  HEAD                           ALL TIMES    "  10 20 18"                               shellmound.head.obs                                                             
 USGS:333611090215901                     CONTINUOUS  HEAD                           ALL TIMES    "  11 20 18"                               shellmound.head.obs                                                             
 USGS:333611090215901                     CONTINUOUS  HEAD                           ALL TIMES    "  12 20 18"                               shellmound.head.obs                                                             
 USGS:333611090215901                     CONTINUOUS  HEAD                           ALL TIMES    "  13 20 18"                               shellmound.head.obs                                                             
 USGS:333628090313501                     CONTINUOUS  HEAD                           ALL TIMES    "  1 20 4"                                 shellmound.head.obs                                                             
 USGS:333628090313501                     CONTINUOUS  HEAD                           ALL TIMES    "  2 20 4"                                 shellmound.head.obs                                                             
 USGS:333628090313501                     CONTINUOUS  HEAD                           ALL TIMES    "  3 20 4"                                 shellmound.head.obs                                                             
 USGS:333628090313501                     CONTINUOUS  HEAD                           ALL TIMES    "  4 20 4"                                 shellmound.head.obs                                                             
 USGS:333628090313501                     CONTINUOUS  HEAD                           ALL TIMES    "  5 20 4"                                 shellmound.head.obs                                                             
 USGS:333628090313501                     CONTINUOUS  HEAD                           ALL TIMES    "  6 20 4"                                 shellmound.head.obs                                                             
 USGS:333628090313501                     CONTINUOUS  HEAD                           ALL TIMES    "  7 20 4"                                 shellmound.head.obs                                                             
 USGS:333628090313501                     CONTINUOUS  HEAD                           ALL TIMES    "  8 20 4"                                 shellmound.head.obs                                                             
 USGS:333628090313501                     CONTINUOUS  HEAD                           ALL TIMES    "  9 20 4"                                 shellmound.head.obs                                                             
 USGS:333628090313501                     CONTINUOUS  HEAD                           ALL TIMES    "  10 20 4"                                shellmound.head.obs                                                             
 USGS:333628090313501                     CONTINUOUS  HEAD                           ALL TIMES    "  11 20 4"                                shellmound.head.obs                                                             
 USGS:333628090313501                     CONTINUOUS  HEAD                           ALL TIMES    "  12 20 4"                                shellmound.head.obs                                                             
 USGS:333628090313501                     CONTINUOUS  HEAD                           ALL TIMES    "  13 20 4"                                shellmound.head.obs                                                             
 USGS:333629090292901                     CONTINUOUS  HEAD                           ALL TIMES    "  1 20 7"                                 shellmound.head.obs                                                             
 USGS:333629090292901                     CONTINUOUS  HEAD                           ALL TIMES    "  2 20 7"                                 shellmound.head.obs                                                             
 USGS:333629090292901                     CONTINUOUS  HEAD                           ALL TIMES    "  3 20 7"                                 shellmound.head.obs                                                             
 USGS:333629090292901                     CONTINUOUS  HEAD                           ALL TIMES    "  4 20 7"                                 shellmound.head.obs                                                             
 USGS:333629090292901                     CONTINUOUS  HEAD                           ALL TIMES    "  5 20 7"                                 shellmound.head.obs                                                             
 USGS:333629090292901                     CONTINUOUS  HEAD                           ALL TIMES    "  6 20 7"                                 shellmound.head.obs                                                             
 USGS:333629090292901                     CONTINUOUS  HEAD                           ALL TIMES    "  7 20 7"                                 shellmound.head.obs                                                             
 USGS:333629090292901                     CONTINUOUS  HEAD                           ALL TIMES    "  8 20 7"                                 shellmound.head.obs                                                             
 USGS:333629090292901                     CONTINUOUS  HEAD                           ALL TIMES    "  9 20 7"                                 shellmound.head.obs                                                             
 USGS:333629090292901                     CONTINUOUS  HEAD                           ALL TIMES    "  10 20 7"                                shellmound.head.obs                                                             
 USGS:333629090292901                     CONTINUOUS  HEAD                           ALL TIMES    "  11 20 7"                                shellmound.head.obs                                                             
 USGS:333629090292901                     CONTINUOUS  HEAD                           ALL TIMES    "  12 20 7"                                shellmound.head.obs                                                             
 USGS:333629090292901                     CONTINUOUS  HEAD                           ALL TIMES    "  13 20 7"                                shellmound.head.obs                                                             
 USGS:333629090313501                     CONTINUOUS  HEAD                           ALL TIMES    "  1 20 4"                                 shellmound.head.obs                                                             
 USGS:333629090313501                     CONTINUOUS  HEAD                           ALL TIMES    "  2 20 4"                                 shellmound.head.obs                                                             
 USGS:333629090313501                     CONTINUOUS  HEAD                           ALL TIMES    "  3 20 4"                                 shellmound.head.obs                                                             
 USGS:333629090313501                     CONTINUOUS  HEAD                           ALL TIMES    "  4 20 4"                                 shellmound.head.obs                                                             
 USGS:333629090313501                     CONTINUOUS  HEAD                           ALL TIMES    "  5 20 4"                                 shellmound.head.obs                                                             
 USGS:333629090313501                     CONTINUOUS  HEAD                           ALL TIMES    "  6 20 4"                                 shellmound.head.obs                                                             
 USGS:333629090313501                     CONTINUOUS  HEAD                           ALL TIMES    "  7 20 4"                                 shellmound.head.obs                                                             
 USGS:333629090313501                     CONTINUOUS  HEAD                           ALL TIMES    "  8 20 4"                                 shellmound.head.obs                                                             
 USGS:333629090313501                     CONTINUOUS  HEAD                           ALL TIMES    "  9 20 4"                                 shellmound.head.obs                                                             
 USGS:333629090313501                     CONTINUOUS  HEAD                           ALL TIMES    "  10 20 4"                                shellmound.head.obs                                                             
 USGS:333629090313501                     CONTINUOUS  HEAD                           ALL TIMES    "  11 20 4"                                shellmound.head.obs                                                             
 USGS:333629090313501                     CONTINUOUS  HEAD                           ALL TIMES    "  12 20 4"                                shellmound.head.obs                                                             
 USGS:333629090313501                     CONTINUOUS  HEAD                           ALL TIMES    "  13 20 4"                                shellmound.head.obs                                                             
 USGS:333635090202901                     CONTINUOUS  HEAD                           ALL TIMES    "  4 19 21"                                shellmound.head.obs                                                             
 USGS:333635090202901                     CONTINUOUS  HEAD                           ALL TIMES    "  5 19 21"                                shellmound.head.obs                                                             
 USGS:333635090202901                     CONTINUOUS  HEAD                           ALL TIMES    "  6 19 21"                                shellmound.head.obs                                                             
 USGS:333635090202901                     CONTINUOUS  HEAD                           ALL TIMES    "  7 19 21"                                shellmound.head.obs                                                             
 USGS:333635090202901                     CONTINUOUS  HEAD                           ALL TIMES    "  8 19 21"                                shellmound.head.obs                                                             
 USGS:333635090202901                     CONTINUOUS  HEAD                           ALL TIMES    "  9 19 21"                                shellmound.head.obs                                                             
 USGS:333635090202901                     CONTINUOUS  HEAD                           ALL TIMES    "  10 19 21"                               shellmound.head.obs                                                             
 USGS:333635090202901                     CONTINUOUS  HEAD                           ALL TIMES    "  11 19 21"                               shellmound.head.obs                                                             
 USGS:333635090202901                     CONTINUOUS  HEAD                           ALL TIMES    "  12 19 21"                               shellmound.head.obs                                                             
 USGS:333635090202901                     CONTINUOUS  HEAD                           ALL TIMES    "  13 19 21"                               shellmound.head.obs                                                             
 USGS:333653090240201                     CONTINUOUS  HEAD                           ALL TIMES    "  4 19 15"                                shellmound.head.obs                                                             
 USGS:333653090240201                     CONTINUOUS  HEAD                           ALL TIMES    "  5 19 15"                                shellmound.head.obs                                                             
 USGS:333653090240201                     CONTINUOUS  HEAD                           ALL TIMES    "  6 19 15"                                shellmound.head.obs                                                             
 USGS:333653090240201                     CONTINUOUS  HEAD                           ALL TIMES    "  7 19 15"                                shellmound.head.obs                                                             
 USGS:333653090240201                     CONTINUOUS  HEAD                           ALL TIMES    "  8 19 15"                                shellmound.head.obs                                                             
 USGS:333653090240201                     CONTINUOUS  HEAD                           ALL TIMES    "  9 19 15"                                shellmound.head.obs                                                             
 USGS:333653090240201                     CONTINUOUS  HEAD                           ALL TIMES    "  10 19 15"                               shellmound.head.obs                                                             
 USGS:333653090240201                     CONTINUOUS  HEAD                           ALL TIMES    "  11 19 15"                               shellmound.head.obs                                                             
 USGS:333653090240201                     CONTINUOUS  HEAD                           ALL TIMES    "  12 19 15"                               shellmound.head.obs                                                             
 USGS:333653090240201                     CONTINUOUS  HEAD                           ALL TIMES    "  13 19 15"                               shellmound.head.obs                                                             
 USGS:333742090303801                     CONTINUOUS  HEAD                           ALL TIMES    "  1 18 4"                                 shellmound.head.obs                                                             
 USGS:333742090303801                     CONTINUOUS  HEAD                           ALL TIMES    "  2 18 4"                                 shellmound.head.obs                                                             
 USGS:333742090303801                     CONTINUOUS  HEAD                           ALL TIMES    "  3 18 4"                                 shellmound.head.obs                                                             
 USGS:333742090303801                     CONTINUOUS  HEAD                           ALL TIMES    "  4 18 4"                                 shellmound.head.obs                                                             
 USGS:333742090303801                     CONTINUOUS  HEAD                           ALL TIMES    "  5 18 4"                                 shellmound.head.obs                                                             
 USGS:333742090303801                     CONTINUOUS  HEAD                           ALL TIMES    "  6 18 4"                                 shellmound.head.obs                                                             
 USGS:333742090303801                     CONTINUOUS  HEAD                           ALL TIMES    "  7 18 4"                                 shellmound.head.obs                                                             
 USGS:333742090303801                     CONTINUOUS  HEAD                           ALL TIMES    "  8 18 4"                                 shellmound.head.obs                                                             
 USGS:333742090303801                     CONTINUOUS  HEAD                           ALL TIMES    "  9 18 4"                                 shellmound.head.obs                                                             
 USGS:333742090303801                     CONTINUOUS  HEAD                           ALL TIMES    "  10 18 4"                                shellmound.head.obs                                                             
 USGS:333742090303801                     CONTINUOUS  HEAD                           ALL TIMES    "  11 18 4"                                shellmound.head.obs                                                             
 USGS:333742090303801                     CONTINUOUS  HEAD                           ALL TIMES    "  12 18 4"                                shellmound.head.obs                                                             
 USGS:333742090303801                     CONTINUOUS  HEAD                           ALL TIMES    "  13 18 4"                                shellmound.head.obs                                                             
 USGS:333845090251401                     CONTINUOUS  HEAD                           ALL TIMES    "  4 15 13"                                shellmound.head.obs                                                             
 USGS:333845090251401                     CONTINUOUS  HEAD                           ALL TIMES    "  5 15 13"                                shellmound.head.obs                                                             
 USGS:333845090251401                     CONTINUOUS  HEAD                           ALL TIMES    "  6 15 13"                                shellmound.head.obs                                                             
 USGS:333845090251401                     CONTINUOUS  HEAD                           ALL TIMES    "  7 15 13"                                shellmound.head.obs                                                             
 USGS:333845090251401                     CONTINUOUS  HEAD                           ALL TIMES    "  8 15 13"                                shellmound.head.obs                                                             
 USGS:333845090251401                     CONTINUOUS  HEAD                           ALL TIMES    "  9 15 13"                                shellmound.head.obs                                                             
 USGS:333845090251401                     CONTINUOUS  HEAD                           ALL TIMES    "  10 15 13"                               shellmound.head.obs                                                             
 USGS:333845090251401                     CONTINUOUS  HEAD                           ALL TIMES    "  11 15 13"                               shellmound.head.obs                                                             
 USGS:333845090251401                     CONTINUOUS  HEAD                           ALL TIMES    "  12 15 13"                               shellmound.head.obs                                                             
 USGS:333845090251401                     CONTINUOUS  HEAD                           ALL TIMES    "  13 15 13"                               shellmound.head.obs                                                             
 USGS:333950090230001                     CONTINUOUS  HEAD                           ALL TIMES    "  4 13 16"                                shellmound.head.obs                                                             
 USGS:333950090230001                     CONTINUOUS  HEAD                           ALL TIMES    "  5 13 16"                                shellmound.head.obs                                                             
 USGS:333950090230001                     CONTINUOUS  HEAD                           ALL TIMES    "  6 13 16"                                shellmound.head.obs                                                             
 USGS:333950090230001                     CONTINUOUS  HEAD                           ALL TIMES    "  7 13 16"                                shellmound.head.obs                                                             
 USGS:333950090230001                     CONTINUOUS  HEAD                           ALL TIMES    "  8 13 16"                                shellmound.head.obs                                                             
 USGS:333950090230001                     CONTINUOUS  HEAD                           ALL TIMES    "  9 13 16"                                shellmound.head.obs                                                             
 USGS:333950090230001                     CONTINUOUS  HEAD                           ALL TIMES    "  10 13 16"                               shellmound.head.obs                                                             
 USGS:333950090230001                     CONTINUOUS  HEAD                           ALL TIMES    "  11 13 16"                               shellmound.head.obs                                                             
 USGS:333950090230001                     CONTINUOUS  HEAD                           ALL TIMES    "  12 13 16"                               shellmound.head.obs                                                             
 USGS:333950090230001                     CONTINUOUS  HEAD                           ALL TIMES    "  13 13 16"                               shellmound.head.obs                                                             
 USGS:334412090270301                     CONTINUOUS  HEAD                           ALL TIMES    "  4 5 10"                                 shellmound.head.obs                                                             
 USGS:334412090270301                     CONTINUOUS  HEAD                           ALL TIMES    "  5 5 10"                                 shellmound.head.obs                                                             
 USGS:334412090270301                     CONTINUOUS  HEAD                           ALL TIMES    "  6 5 10"                                 shellmound.head.obs                                                             
 USGS:334412090270301                     CONTINUOUS  HEAD                           ALL TIMES    "  7 5 10"                                 shellmound.head.obs                                                             
 USGS:334412090270301                     CONTINUOUS  HEAD                           ALL TIMES    "  8 5 10"                                 shellmound.head.obs                                                             
 USGS:334412090270301                     CONTINUOUS  HEAD                           ALL TIMES    "  9 5 10"                                 shellmound.head.obs                                                             
 USGS:334412090270301                     CONTINUOUS  HEAD                           ALL TIMES    "  10 5 10"                                shellmound.head.obs                                                             
 USGS:334412090270301                     CONTINUOUS  HEAD                           ALL TIMES    "  11 5 10"                                shellmound.head.obs                                                             
 USGS:334412090270301                     CONTINUOUS  HEAD                           ALL TIMES    "  12 5 10"                                shellmound.head.obs                                                             
 USGS:334412090270301                     CONTINUOUS  HEAD                           ALL TIMES    "  13 5 10"                                shellmound.head.obs                                                             
 USGS:334413090240901                     CONTINUOUS  HEAD                           ALL TIMES    "  4 5 14"                                 shellmound.head.obs                                                             
 USGS:334413090240901                     CONTINUOUS  HEAD                           ALL TIMES    "  5 5 14"                                 shellmound.head.obs                                                             
 USGS:334413090240901                     CONTINUOUS  HEAD                           ALL TIMES    "  6 5 14"                                 shellmound.head.obs                                                             
 USGS:334413090240901                     CONTINUOUS  HEAD                           ALL TIMES    "  7 5 14"                                 shellmound.head.obs                                                             
 USGS:334413090240901                     CONTINUOUS  HEAD                           ALL TIMES    "  8 5 14"                                 shellmound.head.obs                                                             
 USGS:334413090240901                     CONTINUOUS  HEAD                           ALL TIMES    "  9 5 14"                                 shellmound.head.obs                                                             
 USGS:334413090240901                     CONTINUOUS  HEAD                           ALL TIMES    "  10 5 14"                                shellmound.head.obs                                                             
 USGS:334413090240901                     CONTINUOUS  HEAD                           ALL TIMES    "  11 5 14"                                shellmound.head.obs                                                             
 USGS:334413090240901                     CONTINUOUS  HEAD                           ALL TIMES    "  12 5 14"                                shellmound.head.obs                                                             
 USGS:334413090240901                     CONTINUOUS  HEAD                           ALL TIMES    "  13 5 14"                                shellmound.head.obs                                                             
 USGS:334415090241401                     CONTINUOUS  HEAD                           ALL TIMES    "  4 5 14"                                 shellmound.head.obs                                                             
 USGS:334415090241401                     CONTINUOUS  HEAD                           ALL TIMES    "  5 5 14"                                 shellmound.head.obs                                                             
 USGS:334415090241401                     CONTINUOUS  HEAD                           ALL TIMES    "  6 5 14"                                 shellmound.head.obs                                                             
 USGS:334415090241401                     CONTINUOUS  HEAD                           ALL TIMES    "  7 5 14"                                 shellmound.head.obs                                                             
 USGS:334415090241401                     CONTINUOUS  HEAD                           ALL TIMES    "  8 5 14"                                 shellmound.head.obs                                                             
 USGS:334415090241401                     CONTINUOUS  HEAD                           ALL TIMES    "  9 5 14"                                 shellmound.head.obs                                                             
 USGS:334415090241401                     CONTINUOUS  HEAD                           ALL TIMES    "  10 5 14"                                shellmound.head.obs                                                             
 USGS:334415090241401                     CONTINUOUS  HEAD                           ALL TIMES    "  11 5 14"                                shellmound.head.obs                                                             
 USGS:334415090241401                     CONTINUOUS  HEAD                           ALL TIMES    "  12 5 14"                                shellmound.head.obs                                                             
 USGS:334415090241401                     CONTINUOUS  HEAD                           ALL TIMES    "  13 5 14"                                shellmound.head.obs                                                             
 USGS:334420090291001                     CONTINUOUS  HEAD                           ALL TIMES    "  4 5 7"                                  shellmound.head.obs                                                             
 USGS:334420090291001                     CONTINUOUS  HEAD                           ALL TIMES    "  5 5 7"                                  shellmound.head.obs                                                             
 USGS:334420090291001                     CONTINUOUS  HEAD                           ALL TIMES    "  6 5 7"                                  shellmound.head.obs                                                             
 USGS:334420090291001                     CONTINUOUS  HEAD                           ALL TIMES    "  7 5 7"                                  shellmound.head.obs                                                             
 USGS:334420090291001                     CONTINUOUS  HEAD                           ALL TIMES    "  8 5 7"                                  shellmound.head.obs                                                             
 USGS:334420090291001                     CONTINUOUS  HEAD                           ALL TIMES    "  9 5 7"                                  shellmound.head.obs                                                             
 USGS:334420090291001                     CONTINUOUS  HEAD                           ALL TIMES    "  10 5 7"                                 shellmound.head.obs                                                             
 USGS:334420090291001                     CONTINUOUS  HEAD                           ALL TIMES    "  11 5 7"                                 shellmound.head.obs                                                             
 USGS:334420090291001                     CONTINUOUS  HEAD                           ALL TIMES    "  12 5 7"                                 shellmound.head.obs                                                             
 USGS:334420090291001                     CONTINUOUS  HEAD                           ALL TIMES    "  13 5 7"                                 shellmound.head.obs                                                             
 USGS:334429090210101                     CONTINUOUS  HEAD                           ALL TIMES    "  4 4 19"                                 shellmound.head.obs                                                             
 USGS:334429090210101                     CONTINUOUS  HEAD                           ALL TIMES    "  5 4 19"                                 shellmound.head.obs                                                             
 USGS:334429090210101                     CONTINUOUS  HEAD                           ALL TIMES    "  6 4 19"                                 shellmound.head.obs                                                             
 USGS:334429090210101                     CONTINUOUS  HEAD                           ALL TIMES    "  7 4 19"                                 shellmound.head.obs                                                             
 USGS:334429090210101                     CONTINUOUS  HEAD                           ALL TIMES    "  8 4 19"                                 shellmound.head.obs                                                             
 USGS:334429090210101                     CONTINUOUS  HEAD                           ALL TIMES    "  9 4 19"                                 shellmound.head.obs                                                             
 USGS:334429090210101                     CONTINUOUS  HEAD                           ALL TIMES    "  10 4 19"                                shellmound.head.obs                                                             
 USGS:334429090210101                     CONTINUOUS  HEAD                           ALL TIMES    "  11 4 19"                                shellmound.head.obs                                                             
 USGS:334429090210101                     CONTINUOUS  HEAD                           ALL TIMES    "  12 4 19"                                shellmound.head.obs                                                             
 USGS:334429090210101                     CONTINUOUS  HEAD                           ALL TIMES    "  13 4 19"                                shellmound.head.obs                                                             
 USGS:334538090303801                     CONTINUOUS  HEAD                           ALL TIMES    "  1 3 4"                                  shellmound.head.obs                                                             
 USGS:334538090303801                     CONTINUOUS  HEAD                           ALL TIMES    "  2 3 4"                                  shellmound.head.obs                                                             
 USGS:334538090303801                     CONTINUOUS  HEAD                           ALL TIMES    "  3 3 4"                                  shellmound.head.obs                                                             
 USGS:334538090303801                     CONTINUOUS  HEAD                           ALL TIMES    "  4 3 4"                                  shellmound.head.obs                                                             
 USGS:334538090303801                     CONTINUOUS  HEAD                           ALL TIMES    "  5 3 4"                                  shellmound.head.obs                                                             
 USGS:334538090303801                     CONTINUOUS  HEAD                           ALL TIMES    "  6 3 4"                                  shellmound.head.obs                                                             
 USGS:334538090303801                     CONTINUOUS  HEAD                           ALL TIMES    "  7 3 4"                                  shellmound.head.obs                                                             
 USGS:334538090303801                     CONTINUOUS  HEAD                           ALL TIMES    "  8 3 4"                                  shellmound.head.obs                                                             
 USGS:334538090303801                     CONTINUOUS  HEAD                           ALL TIMES    "  9 3 4"                                  shellmound.head.obs                                                             
 USGS:334538090303801                     CONTINUOUS  HEAD                           ALL TIMES    "  10 3 4"                                 shellmound.head.obs                                                             
 USGS:334538090303801                     CONTINUOUS  HEAD                           ALL TIMES    "  11 3 4"                                 shellmound.head.obs                                                             
 USGS:334538090303801                     CONTINUOUS  HEAD                           ALL TIMES    "  12 3 4"                                 shellmound.head.obs                                                             
 USGS:334538090303801                     CONTINUOUS  HEAD                           ALL TIMES    "  13 3 4"                                 shellmound.head.obs                                                             
 USGS:334630090274201                     CONTINUOUS  HEAD                           ALL TIMES    "  4 1 9"                                  shellmound.head.obs                                                             
 USGS:334630090274201                     CONTINUOUS  HEAD                           ALL TIMES    "  5 1 9"                                  shellmound.head.obs                                                             
 USGS:334630090274201                     CONTINUOUS  HEAD                           ALL TIMES    "  6 1 9"                                  shellmound.head.obs                                                             
 USGS:334630090274201                     CONTINUOUS  HEAD                           ALL TIMES    "  7 1 9"                                  shellmound.head.obs                                                             
 USGS:334630090274201                     CONTINUOUS  HEAD                           ALL TIMES    "  8 1 9"                                  shellmound.head.obs                                                             
 USGS:334630090274201                     CONTINUOUS  HEAD                           ALL TIMES    "  9 1 9"                                  shellmound.head.obs                                                             
 USGS:334630090274201                     CONTINUOUS  HEAD                           ALL TIMES    "  10 1 9"                                 shellmound.head.obs                                                             
 USGS:334630090274201                     CONTINUOUS  HEAD                           ALL TIMES    "  11 1 9"                                 shellmound.head.obs                                                             
 USGS:334630090274201                     CONTINUOUS  HEAD                           ALL TIMES    "  12 1 9"                                 shellmound.head.obs                                                             
 USGS:334630090274201                     CONTINUOUS  HEAD                           ALL TIMES    "  13 1 9"                                 shellmound.head.obs                                                             
 ----------------------------------------------------------------------------------------------------------------------------------------------------------------------------------------------------------------------------


    BINARY GRID INFORMATION WILL BE WRITTEN TO:
      UNIT NUMBER: 1126
      FILE NAME: shellmound.dis.grb

 OPENED shellmound.dis.grb
 FILE TYPE:DATA(BINARY)   UNIT 1126   STATUS:REPLACE             
 FORMAT:UNFORMATTED            ACCESS:STREAM              
 ACTION:READWRITE           

      THE LAST TIME STEP WILL BE PRINTED
      THE LAST TIME STEP WILL BE PRINTED
 # shellmound model version 0.post69.dev0+g5e43358
 # File generated by Flopy version 3.10.0.dev1 on 11/21/2025 at 16:36:04.
 # via modflow-setup version 0.6.0 at 2025-11-21 16:36:05

 PROCESSING OC OPTIONS

    BUDGET INFORMATION WILL BE WRITTEN TO:
      UNIT NUMBER: 1127
      FILE NAME: shellmound.cbc

 OPENED shellmound.cbc
 FILE TYPE:DATA(BINARY)   UNIT 1127   STATUS:REPLACE             
 FORMAT:UNFORMATTED            ACCESS:STREAM              
 ACTION:READWRITE           

    HEAD INFORMATION WILL BE WRITTEN TO:
      UNIT NUMBER: 1128
      FILE NAME: shellmound.hds

 OPENED shellmound.hds
 FILE TYPE:DATA(BINARY)   UNIT 1128   STATUS:REPLACE             
 FORMAT:UNFORMATTED            ACCESS:STREAM              
 ACTION:READWRITE           

 END OF OC OPTIONS

The observation utility is active for "WEL_0"
 # shellmound model version 0.post69.dev0+g5e43358
 # File generated by Flopy version 3.10.0.dev1 on 11/21/2025 at 16:36:05.
 # via modflow-setup version 0.6.0 at 2025-11-21 16:36:05

Processing observation options:



The observation utility is active for "DRN_0"
 # shellmound model version 0.post69.dev0+g5e43358
 # File generated by Flopy version 3.10.0.dev1 on 11/21/2025 at 16:36:04.
 # via modflow-setup version 0.6.0 at 2025-11-21 16:36:05

Processing observation options:



The observation utility is active for "RIV_0"
 # shellmound model version 0.post69.dev0+g5e43358
 # File generated by Flopy version 3.10.0.dev1 on 11/21/2025 at 16:36:04.
 # via modflow-setup version 0.6.0 at 2025-11-21 16:36:05

Processing observation options:



The observation utility is active for "CHD_0"
 # shellmound model version 0.post69.dev0+g5e43358
 # File generated by Flopy version 3.10.0.dev1 on 11/21/2025 at 16:36:04.
 # via modflow-setup version 0.6.0 at 2025-11-21 16:36:05

Processing observation options:



The observation utility is active for "SFR_0"

Processing observation options:

Text output number of digits of precision set to:  5
The PRINT_INPUT option has been specified.

 # obsname  obstype  rno

 OBSERVATIONS READ FROM FILE "shellmound.sfr.obs"
 ----------------------------------------------------------------------------------------------------------------------------------------------------------------------------------------------------------------------------
 NAME                                     TYPE                                       TIME         LOCATION DATA                              OUTPUT FILENAME                                                                 
 ----------------------------------------------------------------------------------------------------------------------------------------------------------------------------------------------------------------------------
 07288555-FLOW                            CONTINUOUS  DOWNSTREAM-FLOW                ALL TIMES    "  34"                                     shellmound.sfr.obs.output.csv                                                   
 07288570-FLOW                            CONTINUOUS  DOWNSTREAM-FLOW                ALL TIMES    "  108"                                    shellmound.sfr.obs.output.csv                                                   
 07288500-FLOW                            CONTINUOUS  DOWNSTREAM-FLOW                ALL TIMES    "  162"                                    shellmound.sfr.obs.output.csv                                                   
 333136090244900-FLOW                     CONTINUOUS  DOWNSTREAM-FLOW                ALL TIMES    "  171"                                    shellmound.sfr.obs.output.csv                                                   
 07288580-FLOW                            CONTINUOUS  DOWNSTREAM-FLOW                ALL TIMES    "  175"                                    shellmound.sfr.obs.output.csv                                                   
 07288555-STAGE                           CONTINUOUS  STAGE                          ALL TIMES    "  34"                                     shellmound.sfr.obs.output.csv                                                   
 07288570-STAGE                           CONTINUOUS  STAGE                          ALL TIMES    "  108"                                    shellmound.sfr.obs.output.csv                                                   
 07288500-STAGE                           CONTINUOUS  STAGE                          ALL TIMES    "  162"                                    shellmound.sfr.obs.output.csv                                                   
 333136090244900-STAGE                    CONTINUOUS  STAGE                          ALL TIMES    "  171"                                    shellmound.sfr.obs.output.csv                                                   
 07288580-STAGE                           CONTINUOUS  STAGE                          ALL TIMES    "  175"                                    shellmound.sfr.obs.output.csv                                                   
 ----------------------------------------------------------------------------------------------------------------------------------------------------------------------------------------------------------------------------



 SFR PACKAGE (SFR_0) STATIC REACH DATA
 ---------------------------------------------------------------------------------------------------------------------------------------
                                                                                                                              UPSTREAM  
   NUMBER   CELLID                  LENGTH       WIDTH        SLOPE         TOP       THICKNESS        HK       ROUGHNESS     FRACTION  
 ---------------------------------------------------------------------------------------------------------------------------------------
     1      (4,1,16)              238.65       3.2764       1.00000E-05  37.721       1.0000       1.0000       3.70000E-02  1.0000     
     2      (4,2,16)              1232.6       3.3501       1.00000E-05  37.721       1.0000       1.0000       3.70000E-02  1.0000     
[...]
    201     (13,11,22)           -480.46700      WEL_62466                               
    202     (13,11,26)           -126.53900      WEL_62468                               
    203     (13,11,29)           -3163.4700      WEL_62470                               
    204     (1,10,3)             -3669.1200      WEL_62848                               
    205     (1,10,5)             -3566.2300      WEL_62849                               
    206     (1,10,6)             -1707.9100      WEL_62850                               
    207     (4,10,8)             -2211.5500      WEL_62851                               
    208     (13,10,9)            -2868.7400      WEL_62852                               
    209     (4,10,11)            -556.18500      WEL_62853                               
    210     (13,10,13)           -1033.5200      WEL_62854                               
    211     (13,10,14)           -3266.3600      WEL_62855                               
    212     (13,10,16)           -2192.0600      WEL_62856                               
    213     (13,10,18)           -514.78500      WEL_62857                               
    214     (13,10,19)           -458.25400      WEL_62858                               
    215     (4,10,21)            -1023.4700      WEL_62859                               
    216     (13,10,22)           -68.638100      WEL_62860                               
    217     (13,10,24)           -126.53900      WEL_62861                               
    218     (13,10,29)           -253.07800      WEL_62864                               
    219     (1,8,3)              -3847.8000      WEL_63242                               
    220     (1,8,5)              -2226.7500      WEL_63243                               
    221     (1,8,6)              -3517.8100      WEL_63244                               
    222     (13,8,8)             -1834.9700      WEL_63245                               
    223     (13,8,9)             -1768.4300      WEL_63246                               
    224     (4,8,11)             -1170.8000      WEL_63247                               
    225     (4,8,13)             -1612.9900      WEL_63248                               
    226     (4,8,14)             -1853.2300      WEL_63249                               
    227     (13,8,16)            -446.14700      WEL_63250                               
    228     (13,8,18)            -926.61400      WEL_63251                               
    229     (13,8,19)            -652.06200      WEL_63252                               
    230     (13,8,24)            -253.07800      WEL_63255                               
    231     (1,7,3)              -3253.3000      WEL_63636                               
    232     (1,7,5)              -2611.2400      WEL_63637                               
    233     (1,7,6)              -2202.4800      WEL_63638                               
    234     (4,7,8)              -1887.5000      WEL_63639                               
    235     (4,7,9)              -2481.0300      WEL_63640                               
    236     (4,7,11)             -1269.8000      WEL_63641                               
    237     (13,7,13)            -1441.4000      WEL_63642                               
    238     (13,7,14)            -446.14700      WEL_63643                               
    239     (13,7,19)            -1138.8500      WEL_63646                               
    240     (13,7,21)            -126.53900      WEL_63647                               
    241     (13,7,22)            -253.07800      WEL_63648                               
    242     (8,7,30)             -126.53900      WEL_63653                               
    243     (1,5,3)              -2787.9000      WEL_64030                               
    244     (1,5,5)              -1440.3300      WEL_64031                               
    245     (1,5,6)              -2170.1500      WEL_64032                               
    246     (13,5,8)             -3232.0500      WEL_64033                               
    247     (13,5,9)             -2396.2300      WEL_64034                               
    248     (13,5,11)            -2971.5000      WEL_64035                               
    249     (13,5,13)            -1504.9100      WEL_64036                               
    250     (13,5,18)            -413.93500      WEL_64039                               
    251     (13,5,24)            -253.07800      WEL_64043                               
    252     (4,5,26)             -34.319000      WEL_64044                               
    253     (4,5,27)             -789.33800      WEL_64045                               
    254     (2,3,3)              -1124.8200      WEL_64424                               
    255     (13,3,5)             -1356.5500      WEL_64425                               
    256     (13,3,6)             -2364.4300      WEL_64426                               
    257     (13,3,8)             -1788.5900      WEL_64427                               
    258     (4,3,9)              -522.84000      WEL_64428                               
    259     (4,3,11)             -355.29700      WEL_64429                               
    260     (13,3,13)            -847.87000      WEL_64430                               
    261     (4,3,19)             -1077.9500      WEL_64434                               
    262     (4,3,21)             -2127.6800      WEL_64435                               
    263     (4,3,22)             -575.26600      WEL_64436                               
    264     (4,3,26)             -137.27600      WEL_64438                               
    265     (4,3,27)             -1853.2300      WEL_64439                               
    266     (13,3,30)            -126.53900      WEL_64441                               
    267     (1,2,3)              -1261.7600      WEL_64818                               
    268     (2,2,5)              -1285.9200      WEL_64819                               
    269     (13,2,6)             -904.35200      WEL_64820                               
    270     (13,2,8)             -1514.0400      WEL_64821                               
    271     (4,2,9)              -1162.8000      WEL_64822                               
    272     (13,2,11)            -730.75600      WEL_64823                               
    273     (13,2,13)            -361.35100      WEL_64824                               
    274     (4,2,19)             -2716.5400      WEL_64828                               
    275     (4,2,21)             -2992.5300      WEL_64829                               
    276     (4,2,22)             -892.29500      WEL_64830                               
    277     (4,2,24)             -1020.3900      WEL_64831                               
    278     (4,2,26)             -1224.6100      WEL_64832                               
    279     (4,2,27)             -514.78500      WEL_64833                               
    280     (4,2,29)             -308.87100      WEL_64834                               
    281     (13,2,32)            -253.07800      WEL_64836                               
    282     (9,3,23)             -6445.9900      WEL_98320                               
    283     (10,4,20)            -565.54800      WEL_98712                               
    284     (9,4,23)             -121.33200      WEL_98714                               
    285     (10,7,9)             -570.13900      WEL_99493                               
    286     (10,9,28)            -565.54800      WEL_99899                               
 ----------------------------------------------------------------------------------------




 RIV PACKAGE (RIV_0) FLOW RATES   PERIOD     19   STEP        5
 ----------------------------------------------------------------------------------------
   NUMBER   CELLID                    RATE       NAME                                    
 ----------------------------------------------------------------------------------------
     1      (4,1,29)             -25591.318      TALLAHATCHIE RIVER                      
     2      (4,2,29)             -23074.650      TALLAHATCHIE RIVER                      
     3      (4,3,29)             -13467.511      TALLAHATCHIE RIVER                      
     4      (4,4,29)             -8865.3690      TALLAHATCHIE RIVER                      
     5      (4,4,30)             -13132.005      TALLAHATCHIE RIVER                      
     6      (4,5,30)             -4031.0968      TALLAHATCHIE RIVER                      
     7      (4,5,31)             -10380.511      TALLAHATCHIE RIVER                      
     8      (4,6,31)             -5249.2914      TALLAHATCHIE RIVER                      
     9      (4,7,31)             -4342.7686      TALLAHATCHIE RIVER                      
     10     (4,8,31)             -723.06555      TALLAHATCHIE RIVER                      
     11     (4,8,30)             -5488.1482      TALLAHATCHIE RIVER                      
     12     (4,9,30)             -2290.3666      TALLAHATCHIE RIVER                      
     13     (4,9,29)             -5241.0586      TALLAHATCHIE RIVER                      
     14     (4,10,29)            -5126.4042      TALLAHATCHIE RIVER                      
     15     (4,11,29)            -2301.0664      TALLAHATCHIE RIVER                      
     16     (4,11,30)            -2583.7939      TALLAHATCHIE RIVER                      
     17     (4,12,30)            -2680.2854      TALLAHATCHIE RIVER                      
     18     (4,12,31)            -2822.0698      TALLAHATCHIE RIVER                      
     19     (4,12,32)            -4197.4027      TALLAHATCHIE RIVER                      
     20     (4,13,32)            -1802.8553      TALLAHATCHIE RIVER                      
     21     (4,14,32)            -1411.3257      TALLAHATCHIE RIVER                      
     22     (4,15,32)            -603.71413      TALLAHATCHIE RIVER                      
     23     (4,15,31)            -2498.3277      TALLAHATCHIE RIVER                      
     24     (4,16,31)            -219.99001      TALLAHATCHIE RIVER                      
     25     (4,16,30)            -3461.6089      TALLAHATCHIE RIVER                      
     26     (4,17,30)            -970.34684      TALLAHATCHIE RIVER                      
     27     (4,17,29)            -3612.2774      TALLAHATCHIE RIVER                      
     28     (4,18,29)            -1191.4057      TALLAHATCHIE RIVER                      
     29     (4,18,28)            -5378.6615      TALLAHATCHIE RIVER                      
     30     (4,19,28)            -2082.1144      TALLAHATCHIE RIVER                      
     31     (4,19,27)            -6638.5184      TALLAHATCHIE RIVER                      
     32     (4,20,27)            -5616.5494      TALLAHATCHIE RIVER                      
     33     (4,21,27)            -4352.7036      TALLAHATCHIE RIVER                      
     34     (4,22,28)             434.51348      TALLAHATCHIE RIVER                      
     35     (4,22,29)             1705.2677      TALLAHATCHIE RIVER                      
     36     (4,22,30)             4755.9554      TALLAHATCHIE RIVER                      
     37     (4,21,30)             3511.2633      TALLAHATCHIE RIVER                      
     38     (4,20,30)            -431.80508      TALLAHATCHIE RIVER                      
     39     (4,20,31)            -788.43849      TALLAHATCHIE RIVER                      
     40     (4,19,31)            -5999.7631      TALLAHATCHIE RIVER                      
     41     (4,19,32)            -2680.4304      TALLAHATCHIE RIVER                      
     42     (4,19,33)            -2592.0142      TALLAHATCHIE RIVER                      
     43     (4,21,33)            -586.19509      TALLAHATCHIE RIVER                      
     44     (4,22,33)            -1853.9936      TALLAHATCHIE RIVER                      
     45     (4,23,33)            -237.91213      TALLAHATCHIE RIVER                      
     46     (4,23,32)            -1843.2690      TALLAHATCHIE RIVER                      
     47     (4,24,32)             614.40700      TALLAHATCHIE RIVER                      
     48     (4,24,31)            -1857.3514      TALLAHATCHIE RIVER                      
     49     (4,25,31)             328.54493      TALLAHATCHIE RIVER                      
     50     (4,25,30)            -1732.6261      TALLAHATCHIE RIVER                      
     51     (4,26,30)             2858.1862      TALLAHATCHIE RIVER                      
     52     (4,27,30)             184.12633      TALLAHATCHIE RIVER                      
     53     (4,27,31)            -9304.9988      YAZOO RIVER                             
     54     (4,23,22)             1000.0000      LAKE HENRY                              
     55     (4,24,22)             1000.0000      LAKE HENRY                              
     56     (4,25,22)             1000.0000      LAKE HENRY                              
     57     (4,26,20)             1000.0000      LAKE HENRY                              
     58     (4,26,21)             1000.0000      LAKE HENRY                              
     59     (4,26,22)             1000.0000      LAKE HENRY                              
     60     (4,27,21)             1000.0000      LAKE HENRY                              
     61     (4,27,22)             1000.0000      LAKE HENRY                              
     62     (4,27,23)             1000.0000      LAKE HENRY                              
 ----------------------------------------------------------------------------------------




 HEAD WILL BE SAVED ON UNIT 1128 AT END OF TIME STEP    5, STRESS PERIOD   19


  SFR_0 BUDGET FOR ENTIRE MODEL AT END OF TIME STEP    5, STRESS PERIOD  19
  ------------------------------------------------------------------------------

     CUMULATIVE SFR_0      L**3       RATES FOR THIS TIME STEP      L**3/T
     ------------------                 ------------------------

           IN:                                      IN:
           ---                                      ---
                 GWF = 10510490742.5106                   GWF =     1787581.0302
            RAINFALL =           0.0000              RAINFALL =           0.0000
         EVAPORATION =           0.0000           EVAPORATION =           0.0000
              RUNOFF =  2250676020.0438                RUNOFF =      589712.1867
          EXT-INFLOW =337215569464.0445            EXT-INFLOW =    55812392.2667
         EXT-OUTFLOW =           0.0000           EXT-OUTFLOW =           0.0000
             STORAGE =           0.0000               STORAGE =           0.0000
            FROM-MVR =           0.0000              FROM-MVR =           0.0000
              TO-MVR =           0.0000                TO-MVR =           0.0000
           AUXILIARY =           0.0000             AUXILIARY =           0.0000

            TOTAL IN =349976736226.5989              TOTAL IN =    58189685.4836

          OUT:                                     OUT:
          ----                                     ----
                 GWF = 11710672404.3644                   GWF =     2060950.0611
            RAINFALL =           0.0000              RAINFALL =           0.0000
         EVAPORATION =           0.0000           EVAPORATION =           0.0000
              RUNOFF =           0.0000                RUNOFF =           0.0000
          EXT-INFLOW =           0.0000            EXT-INFLOW =           0.0000
         EXT-OUTFLOW =338266063822.2348           EXT-OUTFLOW =    56128735.4225
             STORAGE =           0.0000               STORAGE =           0.0000
            FROM-MVR =           0.0000              FROM-MVR =           0.0000
              TO-MVR =           0.0000                TO-MVR =           0.0000
           AUXILIARY =           0.0000             AUXILIARY =           0.0000

           TOTAL OUT =349976736226.5992             TOTAL OUT =    58189685.4836

            IN - OUT =      -3.0518E-04              IN - OUT =      -2.9802E-08

 PERCENT DISCREPANCY =          -0.00     PERCENT DISCREPANCY =          -0.00



  VOLUME BUDGET FOR ENTIRE MODEL AT END OF TIME STEP    5, STRESS PERIOD  19
  ---------------------------------------------------------------------------------------------------

     CUMULATIVE VOLUME      L**3       RATES FOR THIS TIME STEP      L**3/T          PACKAGE NAME    
     ------------------                 ------------------------                     ----------------

           IN:                                      IN:
           ---                                      ---
              STO-SS =     4774391.4068                STO-SS =         418.7232     STORAGE                          
              STO-SY =   604617714.3299                STO-SY =      131801.5615     STORAGE                          
                 WEL =           0.0000                   WEL =           0.0000     WEL_0                            
                 DRN =           0.0000                   DRN =           0.0000     DRN_0                            
                 RIV =   125508550.5218                   RIV =       23392.2643     RIV_0                            
                 GHB =    12840899.4528                   GHB =        1957.2749     GHB_0                            
                RCHA =  2271499247.4917                  RCHA =      257481.3318     RCHA_0                           
                 CHD =   434420695.5859                   CHD =       48866.4183     CHD_0                            
                 SFR = 11710668362.1634                   SFR =     2060950.5810     SFR_0                            

            TOTAL IN = 15164329860.9524              TOTAL IN =     2524868.1550

          OUT:                                     OUT:
          ----                                     ----
              STO-SS =     4701553.8592                STO-SS =           0.0000     STORAGE                          
              STO-SY =   563388324.6246                STO-SY =           0.0000     STORAGE                          
                 WEL =  2729674135.4766                   WEL =      525951.2149     WEL_0                            
                 DRN =           0.0000                   DRN =           0.0000     DRN_0                            
                 RIV =  1356081268.9580                   RIV =      211337.3769     RIV_0                            
                 GHB =           0.0000                   GHB =           0.0000     GHB_0                            
                RCHA =           0.0000                  RCHA =           0.0000     RCHA_0                           
                 CHD =       10536.8298                   CHD =           0.0000     CHD_0                            
                 SFR = 10510486186.0931                   SFR =     1787580.7422     SFR_0                            

           TOTAL OUT = 15164342005.8413             TOTAL OUT =     2524869.3341

            IN - OUT =      -12144.8889              IN - OUT =          -1.1790

 PERCENT DISCREPANCY =          -0.00     PERCENT DISCREPANCY =          -0.00




         TIME SUMMARY AT END OF TIME STEP    5 IN STRESS PERIOD   19
                    SECONDS     MINUTES      HOURS       DAYS        YEARS
                    -----------------------------------------------------------
   TIME STEP LENGTH 6.06970E+06 1.01162E+05  1686.0      70.251     0.19234    
 STRESS PERIOD TIME 1.58112E+07 2.63520E+05  4392.0      183.00     0.50103    
         TOTAL TIME 5.52355E+08 9.20592E+06 1.53432E+05  6393.0      17.503    


end timestep

