                                   MODFLOW 6
                U.S. GEOLOGICAL SURVEY MODULAR HYDROLOGIC MODEL
                          GROUNDWATER FLOW MODEL (GWF)
                            VERSION 6.6.1 02/10/2025

   MODFLOW 6 compiled Feb 14 2025 13:40:10 with Intel(R) Fortran Intel(R) 64
   Compiler Classic for applications running on Intel(R) 64, Version 2021.7.0
                             Build 20220726_000000

This software has been approved for release by the U.S. Geological 
Survey (USGS). Although the software has been subjected to rigorous 
review, the USGS reserves the right to update the software as needed 
pursuant to further analysis and review. No warranty, expressed or 
implied, is made by the USGS or the U.S. Government as to the 
functionality of the software and related material nor shall the 
fact of release constitute any such warranty. Furthermore, the 
software is released on condition that neither the USGS nor the U.S. 
Government shall be held liable for any damages resulting from its 
authorized or unauthorized use. Also refer to the USGS Water 
Resources Software User Rights Notice for complete use, copyright, 
and distribution information.


As a work of the United States Government, this USGS product is 
in the public domain within the United States. You can copy, 
modify, distribute, and perform the work, even for commercial 
purposes, all without asking permission. Additionally, USGS 
waives copyright and related rights in the work worldwide 
through CC0 1.0 Universal Public Domain Dedication 
(https://creativecommons.org/publicdomain/zero/1.0/).

The following GNU Lesser General Public License (LGPL) libraries
are used in this USGS product:

    SPARSKIT version 2.0
      ilut, luson, and qsplit 
      (https://www-users.cse.umn.edu/~saad/software/SPARSKIT/)

    RCM - Reverse Cuthill McKee Ordering
      (https://people.math.sc.edu/Burkardt/f_src/rcm/rcm.html)

    BLAS - Basic Linear Algebra Subprograms Level 1
      (https://people.math.sc.edu/Burkardt/f_src/blas1_d/blas1_d.html)

    SPARSEKIT - Sparse Matrix Utility Package
      amux, dperm, dvperm, rperm, and cperm
      (https://people.sc.fsu.edu/~jburkardt/f77_src/sparsekit/sparsekit.html)

The following BSD-3 License libraries are used in this USGS product:

    Modern Fortran DAG Library
      Copyright (c) 2018, Jacob Williams
      All rights reserved.
      (https://github.com/jacobwilliams/daglib)

MODFLOW 6 compiler options: /O2 /heap-arrays:0 /fpe:0 /traceback /nologo /fpp
/c /module:win64\mod_mf6\ /object:win64\obj_mf6\

System command used to initiate simulation:
C:\Users\gross.DESKTOP-AIRQM2M\anaconda3\Scripts\mf6.exe

MODFLOW was compiled using uniform precision.

Real Variables
  KIND: 8
  TINY (smallest non-zero value):    2.225074-308
  HUGE (largest value):    1.797693+308
  PRECISION: 15
  SIZE IN BITS: 64

Integer Variables
  KIND: 4
  HUGE (largest value): 2147483647
  SIZE IN BITS: 32

Long Integer Variables
  KIND: 8
  HUGE (largest value): 9223372036854775807
  SIZE IN BITS: 64

Logical Variables
  KIND: 4
  SIZE IN BITS: 32
 
 NAMEFILE OPTIONS:
    NEWTON-RAPHSON method enabled for the model.
    NEWTON-RAPHSON UNDER-RELAXATION based on the bottom elevation of the model will be applied to the model.
    STRESS PACKAGE INPUT WILL BE PRINTED FOR ALL MODEL STRESS PACKAGES
    FLOWS WILL BE SAVED TO BUDGET FILE SPECIFIED IN OUTPUT CONTROL
 END NAMEFILE OPTIONS:

 DIS -- STRUCTURED GRID DISCRETIZATION PACKAGE, VERSION 2 : 3/27/2014 - INPUT READ FROM MEMPATH: __INPUT__/PLSNT_LGR_PARENT/DIS                    


 NPF -- NODE PROPERTY FLOW PACKAGE, VERSION 1, 3/30/2015 INPUT READ FROM MEMPATH: __INPUT__/PLSNT_LGR_PARENT/NPF                    


 IC -- Initial Conditions Package, Version 8, 3/28/2015 input read from mempath: __INPUT__/PLSNT_LGR_PARENT/IC                     


 Setting Discretization Options
    Model length unit [0=UND, 1=FEET, 2=METERS, 3=CENTIMETERS] set as 2
    XORIGIN = 553400.0000000000
    YORIGIN = 387800.0000000000
    ANGROT = .000000000000000
 End Setting Discretization Options

 Setting Discretization Dimensions
    NLAY = 5
    NROW = 25
    NCOL = 25
 End Setting Discretization Dimensions

 Setting Discretization Griddata
    DELR set from input file
    DELC set from input file
    TOP set from input file
    BOTM set from input file
    IDOMAIN set from input file
 End Setting Discretization Griddata


 The specified IDOMAIN results in a reduced number of cells.
 Number of user nodes: 3125
 Number of nodes in solution: 1650


 Setting NPF Options
    Cell-by-cell flow information will be saved to binary file whenever ICBCFL is not zero.
 End Setting NPF Options

 Setting NPF Griddata
    ICELLTYPE set from input file
    K set from input file
    K33 set from input file
    K22 not provided.  Setting K22 = K.
 End Setting NPF Griddata


 WEL   -- WEL PACKAGE, VERSION 8, 2/22/2014 INPUT READ FROM MEMPATH: __INPUT__/PLSNT_LGR_PARENT/WEL_0                  

 PROCESSING WEL BASE OPTIONS
    FLOWS WILL BE SAVED TO BUDGET FILE SPECIFIED IN OUTPUT CONTROL
    LISTS OF WEL CELLS WILL BE PRINTED.
    WEL FLOWS WILL BE PRINTED TO LISTING FILE.
    WEL BOUNDARIES HAVE NAMES IN LAST COLUMN.
 END OF WEL BASE OPTIONS

 OPENED plsnt_lgr_parent.wel.obs
 FILE TYPE:OBS   UNIT 1101   STATUS:OLD                 
 FORMAT:FORMATTED              ACCESS:SEQUENTIAL          
 ACTION:READ                


 PROCESSING WEL OPTIONS
 END OF WEL OPTIONS

 PROCESSING WEL BASE DIMENSIONS
    MAXBOUND =       2
 END OF WEL BASE DIMENSIONS

 RCH   -- RCH PACKAGE, VERSION 8, 2/22/2014 INPUT READ FROM MEMPATH: __INPUT__/PLSNT_LGR_PARENT/RCHA_0                 

 PROCESSING RCH BASE OPTIONS
    FLOWS WILL BE SAVED TO BUDGET FILE SPECIFIED IN OUTPUT CONTROL
    LISTS OF RCH CELLS WILL BE PRINTED.
    RCH FLOWS WILL BE PRINTED TO LISTING FILE.
 END OF RCH BASE OPTIONS

 PROCESSING RCHA OPTIONS
    RECHARGE INPUT WILL BE READ AS ARRAY(S).
 END OF RCHA OPTIONS

 CHD   -- CHD PACKAGE, VERSION 8, 2/22/2014 INPUT READ FROM MEMPATH: __INPUT__/PLSNT_LGR_PARENT/CHD_0                  

 PROCESSING CHD BASE OPTIONS
    FLOWS WILL BE SAVED TO BUDGET FILE SPECIFIED IN OUTPUT CONTROL
    CHD BOUNDARIES HAVE NAMES IN LAST COLUMN.
 END OF CHD BASE OPTIONS

 OPENED plsnt_lgr_parent.chd.obs
 FILE TYPE:OBS   UNIT 1102   STATUS:OLD                 
 FORMAT:FORMATTED              ACCESS:SEQUENTIAL          
 ACTION:READ                


 PROCESSING CHD BASE DIMENSIONS
    MAXBOUND =     269
 END OF CHD BASE DIMENSIONS

 SFR   -- SFR PACKAGE, VERSION 8, 2/22/2014 INPUT READ FROM UNIT 1049
 # Pleasant Lake test case version 0.1.post3.dev0+ge07a693
 # File created by modflow-setup version 0.6.0 at 2025-11-19 16:36:00
 # MODFLOW-6 SFR input; created by SFRmaker v. 0.11.3.post37+gad8cb97

 PROCESSING SFR OPTIONS
    FLOWS WILL BE SAVED TO BUDGET FILE SPECIFIED IN OUTPUT CONTROL
    MOVER OPTION ENABLED

 OPENED plsnt_lgr_parent.sfr.out.bin
 FILE TYPE:DATA(BINARY)   UNIT 1103   STATUS:REPLACE             
 FORMAT:UNFORMATTED            ACCESS:STREAM              
 ACTION:READWRITE           

    SFR  BUDGET  WILL BE SAVED TO FILE: plsnt_lgr_parent.sfr.out.bin
    OPENED ON UNIT: 1103

 OPENED plsnt_lgr_parent.sfr.stage.bin
 FILE TYPE:DATA(BINARY)   UNIT 1104   STATUS:REPLACE             
 FORMAT:UNFORMATTED            ACCESS:STREAM              
 ACTION:READWRITE           

    SFR  STAGE  WILL BE SAVED TO FILE: plsnt_lgr_parent.sfr.stage.bin
    OPENED ON UNIT: 1104

 OPENED plsnt_lgr_parent.sfr.obs
 FILE TYPE:OBS   UNIT 1105   STATUS:OLD                 
 FORMAT:FORMATTED              ACCESS:SEQUENTIAL          
 ACTION:READ                

    AUXILIARY SFR VARIABLE: LINE_ID         
 END OF SFR OPTIONS

 PROCESSING SFR DIMENSIONS
    NREACHES = 16
 END OF SFR DIMENSIONS

 OPENED external\plsnt_lgr_parent_packagedata.dat
 FILE TYPE:OPEN/CLOSE   UNIT 1106   STATUS:OLD                 
 FORMAT:FORMATTED              ACCESS:SEQUENTIAL          
 ACTION:READ                


 PROCESSING SFR PACKAGEDATA
 #rno k i j rlen rwid rgrd rtp rbth rhk man ncon ustrf ndv line_id
 END OF SFR PACKAGEDATA

 PROCESSING SFR CONNECTIONDATA
 END OF SFR CONNECTIONDATA
    STRT set from input file

 STO -- STORAGE PACKAGE, VERSION 1, 5/19/2014 INPUT READ FROM MEMPATH: __INPUT__/PLSNT_LGR_PARENT/STO                    


 PROCESSING STORAGE OPTIONS
    CELL-BY-CELL FLOW INFORMATION WILL BE SAVED TO BINARY FILE WHENEVER ICBCFL IS NOT ZERO.
 END OF STORAGE OPTIONS

The observation utility is active for "PLSNT_LGR_PARENT"
 # Pleasant Lake test case version 0.1.post3.dev0+ge07a693
 # File generated by Flopy version 3.10.0.dev1 on 11/19/2025 at 16:36:00.
 # via modflow-setup version 0.6.0 at 2025-11-19 16:36:00

Processing observation options:

Text output number of digits of precision set to: 10
The PRINT_INPUT option has been specified.


 OBSERVATIONS READ FROM FILE "plsnt_lgr_parent.obs"
 ----------------------------------------------------------------------------------------------------------------------------------------------------------------------------------------------------------------------------
 NAME                                     TYPE                                       TIME         LOCATION DATA                              OUTPUT FILENAME                                                                 
 ----------------------------------------------------------------------------------------------------------------------------------------------------------------------------------------------------------------------------
 00400041_UWSP                            CONTINUOUS  HEAD                           ALL TIMES    "  1 6 25"                                 plsnt_lgr_parent.head.obs                                                       
 00400041_UWSP                            CONTINUOUS  HEAD                           ALL TIMES    "  2 6 25"                                 plsnt_lgr_parent.head.obs                                                       
 00400041_UWSP                            CONTINUOUS  HEAD                           ALL TIMES    "  3 6 25"                                 plsnt_lgr_parent.head.obs                                                       
 00400041_UWSP                            CONTINUOUS  HEAD                           ALL TIMES    "  4 6 25"                                 plsnt_lgr_parent.head.obs                                                       
 00400041_UWSP                            CONTINUOUS  HEAD                           ALL TIMES    "  5 6 25"                                 plsnt_lgr_parent.head.obs                                                       
 10041699_LK                              CONTINUOUS  HEAD                           ALL TIMES    "  5 25 9"                                 plsnt_lgr_parent.head.obs                                                       
 10051240_LK                              CONTINUOUS  HEAD                           ALL TIMES    "  3 21 18"                                plsnt_lgr_parent.head.obs                                                       
 10051240_LK                              CONTINUOUS  HEAD                           ALL TIMES    "  5 21 18"                                plsnt_lgr_parent.head.obs                                                       
 DE137                                    CONTINUOUS  HEAD                           ALL TIMES    "  1 2 25"                                 plsnt_lgr_parent.head.obs                                                       
 DE137                                    CONTINUOUS  HEAD                           ALL TIMES    "  2 2 25"                                 plsnt_lgr_parent.head.obs                                                       
 DE137                                    CONTINUOUS  HEAD                           ALL TIMES    "  3 2 25"                                 plsnt_lgr_parent.head.obs                                                       
 DE137                                    CONTINUOUS  HEAD                           ALL TIMES    "  4 2 25"                                 plsnt_lgr_parent.head.obs                                                       
 DE137                                    CONTINUOUS  HEAD                           ALL TIMES    "  5 2 25"                                 plsnt_lgr_parent.head.obs                                                       
 FS745                                    CONTINUOUS  HEAD                           ALL TIMES    "  1 2 25"                                 plsnt_lgr_parent.head.obs                                                       
 FS745                                    CONTINUOUS  HEAD                           ALL TIMES    "  2 2 25"                                 plsnt_lgr_parent.head.obs                                                       
 FS745                                    CONTINUOUS  HEAD                           ALL TIMES    "  3 2 25"                                 plsnt_lgr_parent.head.obs                                                       
 FS745                                    CONTINUOUS  HEAD                           ALL TIMES    "  4 2 25"                                 plsnt_lgr_parent.head.obs                                                       
 FS745                                    CONTINUOUS  HEAD                           ALL TIMES    "  5 2 25"                                 plsnt_lgr_parent.head.obs                                                       
 IG805                                    CONTINUOUS  HEAD                           ALL TIMES    "  1 4 4"                                  plsnt_lgr_parent.head.obs                                                       
 IG805                                    CONTINUOUS  HEAD                           ALL TIMES    "  2 4 4"                                  plsnt_lgr_parent.head.obs                                                       
 IG805                                    CONTINUOUS  HEAD                           ALL TIMES    "  3 4 4"                                  plsnt_lgr_parent.head.obs                                                       
 IG805                                    CONTINUOUS  HEAD                           ALL TIMES    "  4 4 4"                                  plsnt_lgr_parent.head.obs                                                       
 IG805                                    CONTINUOUS  HEAD                           ALL TIMES    "  5 4 4"                                  plsnt_lgr_parent.head.obs                                                       
 KN382                                    CONTINUOUS  HEAD                           ALL TIMES    "  1 10 25"                                plsnt_lgr_parent.head.obs                                                       
 KN382                                    CONTINUOUS  HEAD                           ALL TIMES    "  2 10 25"                                plsnt_lgr_parent.head.obs                                                       
 KN382                                    CONTINUOUS  HEAD                           ALL TIMES    "  3 10 25"                                plsnt_lgr_parent.head.obs                                                       
 KN382                                    CONTINUOUS  HEAD                           ALL TIMES    "  4 10 25"                                plsnt_lgr_parent.head.obs                                                       
 KN382                                    CONTINUOUS  HEAD                           ALL TIMES    "  5 10 25"                                plsnt_lgr_parent.head.obs                                                       
 KP959                                    CONTINUOUS  HEAD                           ALL TIMES    "  1 3 4"                                  plsnt_lgr_parent.head.obs                                                       
 KP959                                    CONTINUOUS  HEAD                           ALL TIMES    "  2 3 4"                                  plsnt_lgr_parent.head.obs                                                       
 KP959                                    CONTINUOUS  HEAD                           ALL TIMES    "  3 3 4"                                  plsnt_lgr_parent.head.obs                                                       
 KP959                                    CONTINUOUS  HEAD                           ALL TIMES    "  4 3 4"                                  plsnt_lgr_parent.head.obs                                                       
 KP959                                    CONTINUOUS  HEAD                           ALL TIMES    "  5 3 4"                                  plsnt_lgr_parent.head.obs                                                       
 KR958                                    CONTINUOUS  HEAD                           ALL TIMES    "  1 4 5"                                  plsnt_lgr_parent.head.obs                                                       
 KR958                                    CONTINUOUS  HEAD                           ALL TIMES    "  2 4 5"                                  plsnt_lgr_parent.head.obs                                                       
 KR958                                    CONTINUOUS  HEAD                           ALL TIMES    "  3 4 5"                                  plsnt_lgr_parent.head.obs                                                       
 KR958                                    CONTINUOUS  HEAD                           ALL TIMES    "  4 4 5"                                  plsnt_lgr_parent.head.obs                                                       
 KR958                                    CONTINUOUS  HEAD                           ALL TIMES    "  5 4 5"                                  plsnt_lgr_parent.head.obs                                                       
 LA257                                    CONTINUOUS  HEAD                           ALL TIMES    "  1 6 23"                                 plsnt_lgr_parent.head.obs                                                       
 LA257                                    CONTINUOUS  HEAD                           ALL TIMES    "  2 6 23"                                 plsnt_lgr_parent.head.obs                                                       
 LA257                                    CONTINUOUS  HEAD                           ALL TIMES    "  3 6 23"                                 plsnt_lgr_parent.head.obs                                                       
 LA257                                    CONTINUOUS  HEAD                           ALL TIMES    "  4 6 23"                                 plsnt_lgr_parent.head.obs                                                       
 LA257                                    CONTINUOUS  HEAD                           ALL TIMES    "  5 6 23"                                 plsnt_lgr_parent.head.obs                                                       
 LA801                                    CONTINUOUS  HEAD                           ALL TIMES    "  1 3 3"                                  plsnt_lgr_parent.head.obs                                                       
 LA801                                    CONTINUOUS  HEAD                           ALL TIMES    "  2 3 3"                                  plsnt_lgr_parent.head.obs                                                       
 LA801                                    CONTINUOUS  HEAD                           ALL TIMES    "  3 3 3"                                  plsnt_lgr_parent.head.obs                                                       
 LA801                                    CONTINUOUS  HEAD                           ALL TIMES    "  4 3 3"                                  plsnt_lgr_parent.head.obs                                                       
 LA801                                    CONTINUOUS  HEAD                           ALL TIMES    "  5 3 3"                                  plsnt_lgr_parent.head.obs                                                       
 LC724                                    CONTINUOUS  HEAD                           ALL TIMES    "  1 2 8"                                  plsnt_lgr_parent.head.obs                                                       
 LC724                                    CONTINUOUS  HEAD                           ALL TIMES    "  2 2 8"                                  plsnt_lgr_parent.head.obs                                                       
 LC724                                    CONTINUOUS  HEAD                           ALL TIMES    "  3 2 8"                                  plsnt_lgr_parent.head.obs                                                       
 LC724                                    CONTINUOUS  HEAD                           ALL TIMES    "  4 2 8"                                  plsnt_lgr_parent.head.obs                                                       
 LC724                                    CONTINUOUS  HEAD                           ALL TIMES    "  5 2 8"                                  plsnt_lgr_parent.head.obs                                                       
 LJ884                                    CONTINUOUS  HEAD                           ALL TIMES    "  1 5 3"                                  plsnt_lgr_parent.head.obs                                                       
 LJ884                                    CONTINUOUS  HEAD                           ALL TIMES    "  2 5 3"                                  plsnt_lgr_parent.head.obs                                                       
 LJ884                                    CONTINUOUS  HEAD                           ALL TIMES    "  3 5 3"                                  plsnt_lgr_parent.head.obs                                                       
 LJ884                                    CONTINUOUS  HEAD                           ALL TIMES    "  4 5 3"                                  plsnt_lgr_parent.head.obs                                                       
 LJ884                                    CONTINUOUS  HEAD                           ALL TIMES    "  5 5 3"                                  plsnt_lgr_parent.head.obs                                                       
 LK_BURNIT_UWSP                           CONTINUOUS  HEAD                           ALL TIMES    "  5 25 10"                                plsnt_lgr_parent.head.obs                                                       
 LY769                                    CONTINUOUS  HEAD                           ALL TIMES    "  1 2 18"                                 plsnt_lgr_parent.head.obs                                                       
 LY769                                    CONTINUOUS  HEAD                           ALL TIMES    "  2 2 18"                                 plsnt_lgr_parent.head.obs                                                       
 LY769                                    CONTINUOUS  HEAD                           ALL TIMES    "  3 2 18"                                 plsnt_lgr_parent.head.obs                                                       
 LY769                                    CONTINUOUS  HEAD                           ALL TIMES    "  4 2 18"                                 plsnt_lgr_parent.head.obs                                                       
 LY769                                    CONTINUOUS  HEAD                           ALL TIMES    "  5 2 18"                                 plsnt_lgr_parent.head.obs                                                       
 MX617                                    CONTINUOUS  HEAD                           ALL TIMES    "  1 6 4"                                  plsnt_lgr_parent.head.obs                                                       
 MX617                                    CONTINUOUS  HEAD                           ALL TIMES    "  2 6 4"                                  plsnt_lgr_parent.head.obs                                                       
 MX617                                    CONTINUOUS  HEAD                           ALL TIMES    "  3 6 4"                                  plsnt_lgr_parent.head.obs                                                       
 MX617                                    CONTINUOUS  HEAD                           ALL TIMES    "  4 6 4"                                  plsnt_lgr_parent.head.obs                                                       
 MX617                                    CONTINUOUS  HEAD                           ALL TIMES    "  5 6 4"                                  plsnt_lgr_parent.head.obs                                                       
 NW269                                    CONTINUOUS  HEAD                           ALL TIMES    "  1 3 2"                                  plsnt_lgr_parent.head.obs                                                       
 NW269                                    CONTINUOUS  HEAD                           ALL TIMES    "  2 3 2"                                  plsnt_lgr_parent.head.obs                                                       
 NW269                                    CONTINUOUS  HEAD                           ALL TIMES    "  3 3 2"                                  plsnt_lgr_parent.head.obs                                                       
 NW269                                    CONTINUOUS  HEAD                           ALL TIMES    "  4 3 2"                                  plsnt_lgr_parent.head.obs                                                       
 NW269                                    CONTINUOUS  HEAD                           ALL TIMES    "  5 3 2"                                  plsnt_lgr_parent.head.obs                                                       
 NY036                                    CONTINUOUS  HEAD                           ALL TIMES    "  1 2 5"                                  plsnt_lgr_parent.head.obs                                                       
 NY036                                    CONTINUOUS  HEAD                           ALL TIMES    "  2 2 5"                                  plsnt_lgr_parent.head.obs                                                       
 NY036                                    CONTINUOUS  HEAD                           ALL TIMES    "  3 2 5"                                  plsnt_lgr_parent.head.obs                                                       
 NY036                                    CONTINUOUS  HEAD                           ALL TIMES    "  4 2 5"                                  plsnt_lgr_parent.head.obs                                                       
 NY036                                    CONTINUOUS  HEAD                           ALL TIMES    "  5 2 5"                                  plsnt_lgr_parent.head.obs                                                       
 OE676                                    CONTINUOUS  HEAD                           ALL TIMES    "  1 1 18"                                 plsnt_lgr_parent.head.obs                                                       
 OE676                                    CONTINUOUS  HEAD                           ALL TIMES    "  2 1 18"                                 plsnt_lgr_parent.head.obs                                                       
 OE676                                    CONTINUOUS  HEAD                           ALL TIMES    "  3 1 18"                                 plsnt_lgr_parent.head.obs                                                       
 OE676                                    CONTINUOUS  HEAD                           ALL TIMES    "  4 1 18"                                 plsnt_lgr_parent.head.obs                                                       
 OE676                                    CONTINUOUS  HEAD                           ALL TIMES    "  5 1 18"                                 plsnt_lgr_parent.head.obs                                                       
 OR193                                    CONTINUOUS  HEAD                           ALL TIMES    "  1 12 2"                                 plsnt_lgr_parent.head.obs                                                       
 OR193                                    CONTINUOUS  HEAD                           ALL TIMES    "  2 12 2"                                 plsnt_lgr_parent.head.obs                                                       
 OR193                                    CONTINUOUS  HEAD                           ALL TIMES    "  3 12 2"                                 plsnt_lgr_parent.head.obs                                                       
 OR193                                    CONTINUOUS  HEAD                           ALL TIMES    "  4 12 2"                                 plsnt_lgr_parent.head.obs                                                       
 OR193                                    CONTINUOUS  HEAD                           ALL TIMES    "  5 12 2"                                 plsnt_lgr_parent.head.obs                                                       
 RI958                                    CONTINUOUS  HEAD                           ALL TIMES    "  1 8 2"                                  plsnt_lgr_parent.head.obs                                                       
 RI958                                    CONTINUOUS  HEAD                           ALL TIMES    "  2 8 2"                                  plsnt_lgr_parent.head.obs                                                       
 RI958                                    CONTINUOUS  HEAD                           ALL TIMES    "  3 8 2"                                  plsnt_lgr_parent.head.obs                                                       
 RI958                                    CONTINUOUS  HEAD                           ALL TIMES    "  4 8 2"                                  plsnt_lgr_parent.head.obs                                                       
 RI958                                    CONTINUOUS  HEAD                           ALL TIMES    "  5 8 2"                                  plsnt_lgr_parent.head.obs                                                       
 RI971                                    CONTINUOUS  HEAD                           ALL TIMES    "  1 7 4"                                  plsnt_lgr_parent.head.obs                                                       
 RI971                                    CONTINUOUS  HEAD                           ALL TIMES    "  2 7 4"                                  plsnt_lgr_parent.head.obs                                                       
 RI971                                    CONTINUOUS  HEAD                           ALL TIMES    "  3 7 4"                                  plsnt_lgr_parent.head.obs                                                       
 RI971                                    CONTINUOUS  HEAD                           ALL TIMES    "  4 7 4"                                  plsnt_lgr_parent.head.obs                                                       
 RI971                                    CONTINUOUS  HEAD                           ALL TIMES    "  5 7 4"                                  plsnt_lgr_parent.head.obs                                                       
 RL198                                    CONTINUOUS  HEAD                           ALL TIMES    "  1 5 1"                                  plsnt_lgr_parent.head.obs                                                       
 RL198                                    CONTINUOUS  HEAD                           ALL TIMES    "  2 5 1"                                  plsnt_lgr_parent.head.obs                                                       
 RL198                                    CONTINUOUS  HEAD                           ALL TIMES    "  3 5 1"                                  plsnt_lgr_parent.head.obs                                                       
 RL198                                    CONTINUOUS  HEAD                           ALL TIMES    "  4 5 1"                                  plsnt_lgr_parent.head.obs                                                       
 RL198                                    CONTINUOUS  HEAD                           ALL TIMES    "  5 5 1"                                  plsnt_lgr_parent.head.obs                                                       
 RZ900                                    CONTINUOUS  HEAD                           ALL TIMES    "  1 3 2"                                  plsnt_lgr_parent.head.obs                                                       
 RZ900                                    CONTINUOUS  HEAD                           ALL TIMES    "  2 3 2"                                  plsnt_lgr_parent.head.obs                                                       
 RZ900                                    CONTINUOUS  HEAD                           ALL TIMES    "  3 3 2"                                  plsnt_lgr_parent.head.obs                                                       
 RZ900                                    CONTINUOUS  HEAD                           ALL TIMES    "  4 3 2"                                  plsnt_lgr_parent.head.obs                                                       
 RZ900                                    CONTINUOUS  HEAD                           ALL TIMES    "  5 3 2"                                  plsnt_lgr_parent.head.obs                                                       
 SA454                                    CONTINUOUS  HEAD                           ALL TIMES    "  1 6 3"                                  plsnt_lgr_parent.head.obs                                                       
 SA454                                    CONTINUOUS  HEAD                           ALL TIMES    "  2 6 3"                                  plsnt_lgr_parent.head.obs                                                       
 SA454                                    CONTINUOUS  HEAD                           ALL TIMES    "  3 6 3"                                  plsnt_lgr_parent.head.obs                                                       
 SA454                                    CONTINUOUS  HEAD                           ALL TIMES    "  4 6 3"                                  plsnt_lgr_parent.head.obs                                                       
 SA454                                    CONTINUOUS  HEAD                           ALL TIMES    "  5 6 3"                                  plsnt_lgr_parent.head.obs                                                       
 SB043                                    CONTINUOUS  HEAD                           ALL TIMES    "  1 2 7"                                  plsnt_lgr_parent.head.obs                                                       
 SB043                                    CONTINUOUS  HEAD                           ALL TIMES    "  2 2 7"                                  plsnt_lgr_parent.head.obs                                                       
 SB043                                    CONTINUOUS  HEAD                           ALL TIMES    "  3 2 7"                                  plsnt_lgr_parent.head.obs                                                       
 SB043                                    CONTINUOUS  HEAD                           ALL TIMES    "  4 2 7"                                  plsnt_lgr_parent.head.obs                                                       
 SB043                                    CONTINUOUS  HEAD                           ALL TIMES    "  5 2 7"                                  plsnt_lgr_parent.head.obs                                                       
 SH461                                    CONTINUOUS  HEAD                           ALL TIMES    "  1 1 25"                                 plsnt_lgr_parent.head.obs                                                       
 SH461                                    CONTINUOUS  HEAD                           ALL TIMES    "  2 1 25"                                 plsnt_lgr_parent.head.obs                                                       
 SH461                                    CONTINUOUS  HEAD                           ALL TIMES    "  3 1 25"                                 plsnt_lgr_parent.head.obs                                                       
 SH461                                    CONTINUOUS  HEAD                           ALL TIMES    "  4 1 25"                                 plsnt_lgr_parent.head.obs                                                       
 SH461                                    CONTINUOUS  HEAD                           ALL TIMES    "  5 1 25"                                 plsnt_lgr_parent.head.obs                                                       
 TJ700                                    CONTINUOUS  HEAD                           ALL TIMES    "  1 1 8"                                  plsnt_lgr_parent.head.obs                                                       
 TJ700                                    CONTINUOUS  HEAD                           ALL TIMES    "  2 1 8"                                  plsnt_lgr_parent.head.obs                                                       
 TJ700                                    CONTINUOUS  HEAD                           ALL TIMES    "  3 1 8"                                  plsnt_lgr_parent.head.obs                                                       
 TJ700                                    CONTINUOUS  HEAD                           ALL TIMES    "  4 1 8"                                  plsnt_lgr_parent.head.obs                                                       
 TJ700                                    CONTINUOUS  HEAD                           ALL TIMES    "  5 1 8"                                  plsnt_lgr_parent.head.obs                                                       
 TL342                                    CONTINUOUS  HEAD                           ALL TIMES    "  1 3 1"                                  plsnt_lgr_parent.head.obs                                                       
 TL342                                    CONTINUOUS  HEAD                           ALL TIMES    "  2 3 1"                                  plsnt_lgr_parent.head.obs                                                       
 TL342                                    CONTINUOUS  HEAD                           ALL TIMES    "  3 3 1"                                  plsnt_lgr_parent.head.obs                                                       
 TL342                                    CONTINUOUS  HEAD                           ALL TIMES    "  4 3 1"                                  plsnt_lgr_parent.head.obs                                                       
 TL342                                    CONTINUOUS  HEAD                           ALL TIMES    "  5 3 1"                                  plsnt_lgr_parent.head.obs                                                       
 TP151                                    CONTINUOUS  HEAD                           ALL TIMES    "  1 6 3"                                  plsnt_lgr_parent.head.obs                                                       
 TP151                                    CONTINUOUS  HEAD                           ALL TIMES    "  2 6 3"                                  plsnt_lgr_parent.head.obs                                                       
 TP151                                    CONTINUOUS  HEAD                           ALL TIMES    "  3 6 3"                                  plsnt_lgr_parent.head.obs                                                       
 TP151                                    CONTINUOUS  HEAD                           ALL TIMES    "  4 6 3"                                  plsnt_lgr_parent.head.obs                                                       
 TP151                                    CONTINUOUS  HEAD                           ALL TIMES    "  5 6 3"                                  plsnt_lgr_parent.head.obs                                                       
 WI482                                    CONTINUOUS  HEAD                           ALL TIMES    "  1 9 4"                                  plsnt_lgr_parent.head.obs                                                       
 WI482                                    CONTINUOUS  HEAD                           ALL TIMES    "  2 9 4"                                  plsnt_lgr_parent.head.obs                                                       
 WI482                                    CONTINUOUS  HEAD                           ALL TIMES    "  3 9 4"                                  plsnt_lgr_parent.head.obs                                                       
 WI482                                    CONTINUOUS  HEAD                           ALL TIMES    "  4 9 4"                                  plsnt_lgr_parent.head.obs                                                       
 WI482                                    CONTINUOUS  HEAD                           ALL TIMES    "  5 9 4"                                  plsnt_lgr_parent.head.obs                                                       
 WJ508                                    CONTINUOUS  HEAD                           ALL TIMES    "  1 1 25"                                 plsnt_lgr_parent.head.obs                                                       
 WJ508                                    CONTINUOUS  HEAD                           ALL TIMES    "  2 1 25"                                 plsnt_lgr_parent.head.obs                                                       
 WJ508                                    CONTINUOUS  HEAD                           ALL TIMES    "  3 1 25"                                 plsnt_lgr_parent.head.obs                                                       
 WJ508                                    CONTINUOUS  HEAD                           ALL TIMES    "  4 1 25"                                 plsnt_lgr_parent.head.obs                                                       
 WJ508                                    CONTINUOUS  HEAD                           ALL TIMES    "  5 1 25"                                 plsnt_lgr_parent.head.obs                                                       
 YG202                                    CONTINUOUS  HEAD                           ALL TIMES    "  1 5 7"                                  plsnt_lgr_parent.head.obs                                                       
 YG202                                    CONTINUOUS  HEAD                           ALL TIMES    "  2 5 7"                                  plsnt_lgr_parent.head.obs                                                       
 YG202                                    CONTINUOUS  HEAD                           ALL TIMES    "  3 5 7"                                  plsnt_lgr_parent.head.obs                                                       
 YG202                                    CONTINUOUS  HEAD                           ALL TIMES    "  4 5 7"                                  plsnt_lgr_parent.head.obs                                                       
 YG202                                    CONTINUOUS  HEAD                           ALL TIMES    "  5 5 7"                                  plsnt_lgr_parent.head.obs                                                       
 YH229                                    CONTINUOUS  HEAD                           ALL TIMES    "  1 5 17"                                 plsnt_lgr_parent.head.obs                                                       
 YH229                                    CONTINUOUS  HEAD                           ALL TIMES    "  2 5 17"                                 plsnt_lgr_parent.head.obs                                                       
 YH229                                    CONTINUOUS  HEAD                           ALL TIMES    "  3 5 17"                                 plsnt_lgr_parent.head.obs                                                       
 YH229                                    CONTINUOUS  HEAD                           ALL TIMES    "  4 5 17"                                 plsnt_lgr_parent.head.obs                                                       
 YH229                                    CONTINUOUS  HEAD                           ALL TIMES    "  5 5 17"                                 plsnt_lgr_parent.head.obs                                                       
 YS864                                    CONTINUOUS  HEAD                           ALL TIMES    "  1 4 1"                                  plsnt_lgr_parent.head.obs                                                       
 YS864                                    CONTINUOUS  HEAD                           ALL TIMES    "  2 4 1"                                  plsnt_lgr_parent.head.obs                                                       
 YS864                                    CONTINUOUS  HEAD                           ALL TIMES    "  3 4 1"                                  plsnt_lgr_parent.head.obs                                                       
 YS864                                    CONTINUOUS  HEAD                           ALL TIMES    "  4 4 1"                                  plsnt_lgr_parent.head.obs                                                       
 YS864                                    CONTINUOUS  HEAD                           ALL TIMES    "  5 4 1"                                  plsnt_lgr_parent.head.obs                                                       
 ----------------------------------------------------------------------------------------------------------------------------------------------------------------------------------------------------------------------------


    BINARY GRID INFORMATION WILL BE WRITTEN TO:
      UNIT NUMBER: 1116
      FILE NAME: plsnt_lgr_parent.dis.grb

 OPENED plsnt_lgr_parent.dis.grb
 FILE TYPE:DATA(BINARY)   UNIT 1116   STATUS:REPLACE             
 FORMAT:UNFORMATTED            ACCESS:STREAM              
 ACTION:READWRITE           

      THE LAST TIME STEP WILL BE PRINTED
      THE LAST TIME STEP WILL BE PRINTED
 # Pleasant Lake test case version 0.1.post3.dev0+ge07a693
 # File generated by Flopy version 3.10.0.dev1 on 11/19/2025 at 16:36:00.
 # via modflow-setup version 0.6.0 at 2025-11-19 16:36:00

 PROCESSING OC OPTIONS

    BUDGET INFORMATION WILL BE WRITTEN TO:
      UNIT NUMBER: 1117
      FILE NAME: plsnt_lgr_parent.cbc

 OPENED plsnt_lgr_parent.cbc
 FILE TYPE:DATA(BINARY)   UNIT 1117   STATUS:REPLACE             
 FORMAT:UNFORMATTED            ACCESS:STREAM              
 ACTION:READWRITE           

    HEAD INFORMATION WILL BE WRITTEN TO:
      UNIT NUMBER: 1118
      FILE NAME: plsnt_lgr_parent.hds

 OPENED plsnt_lgr_parent.hds
 FILE TYPE:DATA(BINARY)   UNIT 1118   STATUS:REPLACE             
 FORMAT:UNFORMATTED            ACCESS:STREAM              
 ACTION:READWRITE           

 END OF OC OPTIONS

The observation utility is active for "WEL_0"
 # Pleasant Lake test case version 0.1.post3.dev0+ge07a693
 # File generated by Flopy version 3.10.0.dev1 on 11/19/2025 at 16:36:00.
 # via modflow-setup version 0.6.0 at 2025-11-19 16:36:00

Processing observation options:



The observation utility is active for "CHD_0"
 # Pleasant Lake test case version 0.1.post3.dev0+ge07a693
 # File generated by Flopy version 3.10.0.dev1 on 11/19/2025 at 16:36:00.
 # via modflow-setup version 0.6.0 at 2025-11-19 16:36:00

Processing observation options:



The observation utility is active for "SFR_0"

Processing observation options:

Text output number of digits of precision set to:  5
The PRINT_INPUT option has been specified.

 # obsname  obstype  rno

 OBSERVATIONS READ FROM FILE "plsnt_lgr_parent.sfr.obs"
 ----------------------------------------------------------------------------------------------------------------------------------------------------------------------------------------------------------------------------
 NAME                                     TYPE                                       TIME         LOCATION DATA                              OUTPUT FILENAME                                                                 
 ----------------------------------------------------------------------------------------------------------------------------------------------------------------------------------------------------------------------------
 2000000                                  CONTINUOUS  DOWNSTREAM-FLOW                ALL TIMES    "  1"                                      plsnt_lgr_parent.sfr.obs.output.csv                                             
 1000000                                  CONTINUOUS  DOWNSTREAM-FLOW                ALL TIMES    "  13"                                     plsnt_lgr_parent.sfr.obs.output.csv                                             
 ----------------------------------------------------------------------------------------------------------------------------------------------------------------------------------------------------------------------------



 SFR PACKAGE (SFR_0) STATIC REACH DATA
 ---------------------------------------------------------------------------------------------------------------------------------------
                                                                                                                              UPSTREAM  
   NUMBER   CELLID                  LENGTH       WIDTH        SLOPE         TOP       THICKNESS        HK       ROUGHNESS     FRACTION  
 ---------------------------------------------------------------------------------------------------------------------------------------
     1      (5,21,16)             203.97       3.6408       1.00000E-04  290.66       1.0000       1.0000       3.70000E-02  1.0000     
     2      (5,22,16)             142.93       3.6728       1.00000E-04  290.66       1.0000       1.0000       3.70000E-02  1.0000     
     3      (5,22,17)             70.154       3.6924       1.00000E-04  290.66       1.0000       1.0000       3.70000E-02  1.0000     
     4      (5,23,17)             250.40       3.7220       1.00000E-04  290.66       1.0000       1.0000       3.70000E-02  1.0000     
     5      (5,23,18)             168.28       3.7606       1.00000E-04  290.66       1.0000       1.0000       3.70000E-02  1.0000     
     6      (5,24,18)             64.600       3.7820       7.22364E-03  290.66       1.0000       1.0000       3.70000E-02  1.0000     
     7      (5,24,19)             186.91       3.8052       3.86956E-03  290.19       1.0000       1.0000       3.70000E-02  1.0000     
     8      (3,25,19)             305.24       3.8506       4.21510E-04  289.47       1.0000       1.0000       3.70000E-02  1.0000     
     9      (3,25,20)             201.47       3.8973       2.59185E-03  289.34       1.0000       1.0000       3.70000E-02  1.0000     
     10     (3,25,21)             224.37       3.9365       9.34133E-04  288.82       1.0000       1.0000       3.70000E-02  1.0000     
     11     (2,25,22)             210.66       3.9766       4.44658E-03  288.61       1.0000       1.0000       3.70000E-02  1.0000     
     12     (2,25,23)             224.08       4.0167       1.00000E-03  287.67       1.0000       1.0000       3.70000E-02  1.0000     
     13     (1,12,22)             219.31       4.3968       4.09631E-03  293.59       1.0000       1.0000       3.70000E-02  1.0000     
     14     (1,12,23)             202.81       4.4304       2.83778E-03  292.69       1.0000       1.0000       3.70000E-02  1.0000     
     15     (1,12,24)             201.48       4.4626       1.13095E-02  292.11       1.0000       1.0000       3.70000E-02  1.0000     
     16     (1,12,25)             205.90       4.4950       1.00000E-03  289.83       1.0000       1.0000       3.70000E-02  1.0000     
 ---------------------------------------------------------------------------------------------------------------------------------------



 SFR PACKAGE (SFR_0) STATIC REACH CONNECTION DATA
 --------------------------------
   REACH      CONN 1     CONN 2  
 --------------------------------
     1          2                
     2          1          3     
     3          2          4     
     4          3          5     
     5          4          6     
     6          5          7     
     7          6          8     
     8          7          9     
     9          8          10    
     10         9          11    
     11         10         12    
     12         11               
     13         14               
     14         13         15    
     15         14         16    
     16         15               
 --------------------------------



 SFR PACKAGE (SFR_0) STATIC UPSTREAM REACH CONNECTION DATA
 ---------------------
             UPSTREAM 
   REACH      CONN 1  
 ---------------------
     1                
     2          1     
     3          2     
     4          3     
     5          4     
     6          5     
     7          6     
     8          7     
     9          8     
     10         9     
     11         10    
     12         11    
     13               
     14         13    
     15         14    
     16         15    
 ---------------------



 SFR PACKAGE (SFR_0) STATIC DOWNSTREAM REACH CONNECTION DATA
 ---------------------
            DOWNSTREAM
   REACH      CONN 1  
 ---------------------
     1          2     
     2          3     
     3          4     
     4          5     
     5          6     
     6          7     
     7          8     
     8          9     
     9          10    
     10         11    
     11         12    
     12               
     13         14    
     14         15    
     15         16    
     16               
 ---------------------



start timestep kper="1" kstp="1" mode="normal"


 BEGIN READING OUTPUT CONTROL FOR STRESS PERIOD 1
      THE LAST TIME STEP WILL BE SAVED
      THE LAST TIME STEP WILL BE SAVED

 END READING OUTPUT CONTROL FOR STRESS PERIOD 1


 PROCESSING STORAGE PERIOD DATA
 END PROCESSING STORAGE PERIOD DATA


 STRESS PERIOD 1 IS STEADY-STATE

 ---------------------------------------------------------------------------
  WEL NO.    LAYER    ROW     COL   BOUNDNAME                               
 ---------------------------------------------------------------------------
     1         3       8      10    PLEASANT_3-13-28                        
     2         3      11      22    PLEASANT_3-24-27                        
 ---------------------------------------------------------------------------


 ----------------------------------
  RCH NO.    LAYER    ROW     COL  
 ----------------------------------
     1         1       1       1   
     2         1       1       2   
     3         1       1       3   
     4         1       1       4   
     5         1       1       5   
     6         1       1       6   
     7         1       1       7   
     8         1       1       8   
     9         1       1       9   
     10        1       1      10   
     11        1       1      11   
     12        1       1      12   
     13        1       1      13   
     14        1       1      14   
     15        1       1      15   
     16        1       1      16   
     17        1       1      17   
     18        1       1      18   
     19        1       1      19   
     20        1       1      20   
     21        1       1      21   
     22        1       1      22   
     23        1       1      23   
     24        1       1      24   
     25        1       1      25   
     26        1       2       1   
     27        1       2       2   
     28        1       2       3   
     29        1       2       4   
     30        1       2       5   
     31        1       2       6   
     32        1       2       7   
     33        1       2       8   
     34        1       2       9   
     35        1       2      10   
     36        1       2      11   
     37        1       2      12   
     38        1       2      13   
     39        1       2      14   
     40        1       2      15   
     41        1       2      16   
     42        1       2      17   
     43        1       2      18   
     44        1       2      19   
     45        1       2      20   
     46        1       2      21   
     47        1       2      22   
     48        1       2      23   
     49        1       2      24   
     50        1       2      25   
     51        1       3       1   
     52        1       3       2   
     53        1       3       3   
     54        1       3       4   
     55        1       3       5   
     56        1       3       6   
     57        1       3       7   
     58        1       3       8   
     59        1       3       9   
     60        1       3      10   
     61        1       3      11   
     62        1       3      12   
     63        1       3      13   
     64        1       3      14   
     65        1       3      15   
     66        1       3      16   
     67        1       3      17   
     68        1       3      18   
     69        1       3      19   
     70        1       3      20   
     71        1       3      21   
     72        1       3      22   
     73        1       3      23   
     74        1       3      24   
     75        1       3      25   
     76        1       4       1   
     77        1       4       2   
     78        1       4       3   
     79        1       4       4   
     80        1       4       5   
     81        1       4       6   
     82        1       4       7   
     83        1       4       8   
     84        1       4       9   
     85        1       4      10   
     86        1       4      11   
     87        1       4      12   
     88        1       4      13   
     89        1       4      14   
     90        1       4      15   
     91        1       4      16   
     92        1       4      17   
     93        1       4      18   
     94        1       4      19   
     95        1       4      20   
     96        1       4      21   
     97        1       4      22   
     98        1       4      23   
     99        1       4      24   
    100        1       4      25   
    101        1       5       1   
    102        1       5       2   
    103        1       5       3   
    104        1       5       4   
    105        1       5       5   
    106        1       5       6   
    107        1       5       7   
    108        1       5       8   
    109        1       5       9   
    110        1       5      10   
    111        1       5      11   
    112        1       5      12   
    113        1       5      13   
    114        1       5      14   
    115        1       5      15   
    116        1       5      16   
    117        1       5      17   
    118        1       5      18   
    119        1       5      19   
    120        1       5      20   
    121        1       5      21   
    122        1       5      22   
    123        1       5      23   
    124        1       5      24   
    125        1       5      25   
    126        1       6       1   
    127        1       6       2   
    128        1       6       3   
    129        1       6       4   
    130       -1      -1      -1   
    131       -1      -1      -1   
    132       -1      -1      -1   
    133       -1      -1      -1   
    134       -1      -1      -1   
    135       -1      -1      -1   
    136       -1      -1      -1   
    137       -1      -1      -1   
    138       -1      -1      -1   
    139       -1      -1      -1   
    140       -1      -1      -1   
    141       -1      -1      -1   
    142       -1      -1      -1   
    143       -1      -1      -1   
    144       -1      -1      -1   
    145       -1      -1      -1   
    146       -1      -1      -1   
    147        1       6       5   
    148        1       6       6   
    149        1       6       7   
    150        1       6       8   
    151        1       6       9   
    152        1       6      10   
    153        1       6      11   
    154        1       6      12   
    155       -1      -1      -1   
    156       -1      -1      -1   
    157       -1      -1      -1   
    158       -1      -1      -1   
    159       -1      -1      -1   
    160       -1      -1      -1   
    161       -1      -1      -1   
    162       -1      -1      -1   
    163       -1      -1      -1   
    164       -1      -1      -1   
    165       -1      -1      -1   
    166       -1      -1      -1   
    167       -1      -1      -1   
    168       -1      -1      -1   
    169       -1      -1      -1   
    170       -1      -1      -1   
    171       -1      -1      -1   
    172        1       6      13   
    173        1       6      14   
    174        1       6      15   
    175        1       6      16   
    176        1       6      17   
    177        1       6      18   
    178        1       6      19   
    179        1       6      20   
    180       -1      -1      -1   
    181       -1      -1      -1   
    182       -1      -1      -1   
    183       -1      -1      -1   
    184       -1      -1      -1   
    185       -1      -1      -1   
    186       -1      -1      -1   
    187       -1      -1      -1   
    188       -1      -1      -1   
    189       -1      -1      -1   
    190       -1      -1      -1   
    191       -1      -1      -1   
    192       -1      -1      -1   
    193       -1      -1      -1   
    194       -1      -1      -1   
    195       -1      -1      -1   
    196       -1      -1      -1   
    197        1       6      21   
    198        1       6      22   
    199        1       6      23   
    200        1       6      24   
    201        1       6      25   
    202        1       7       1   
    203        1       7       2   
    204        1       7       3   
    205       -1      -1      -1   
    206       -1      -1      -1   
    207       -1      -1      -1   
    208       -1      -1      -1   
    209       -1      -1      -1   
    210       -1      -1      -1   
    211       -1      -1      -1   
    212       -1      -1      -1   
    213       -1      -1      -1   
    214       -1      -1      -1   
    215       -1      -1      -1   
    216       -1      -1      -1   
    217       -1      -1      -1   
    218       -1      -1      -1   
    219       -1      -1      -1   
    220       -1      -1      -1   
    221       -1      -1      -1   
    222        1       7       4   
    223        1       7       5   
    224        1       7       6   
    225        1       7       7   
    226        1       7       8   
    227        1       7       9   
    228        1       7      10   
    229        1       7      11   
    230       -1      -1      -1   
    231       -1      -1      -1   
    232       -1      -1      -1   
    233       -1      -1      -1   
    234       -1      -1      -1   
    235       -1      -1      -1   
    236       -1      -1      -1   
    237       -1      -1      -1   
    238       -1      -1      -1   
    239       -1      -1      -1   
    240       -1      -1      -1   
    241       -1      -1      -1   
    242       -1      -1      -1   
    243       -1      -1      -1   
    244       -1      -1      -1   
    245       -1      -1      -1   
    246       -1      -1      -1   
    247        1       7      12   
    248        1       7      13   
    249        1       7      14   
    250        1       7      15   
    251        1       7      16   
    252        1       7      17   
    253        1       7      18   
    254        1       7      19   
    255       -1      -1      -1   
    256       -1      -1      -1   
    257       -1      -1      -1   
    258       -1      -1      -1   
    259       -1      -1      -1   
    260       -1      -1      -1   
    261       -1      -1      -1   
    262       -1      -1      -1   
    263       -1      -1      -1   
    264       -1      -1      -1   
    265       -1      -1      -1   
    266       -1      -1      -1   
    267       -1      -1      -1   
    268       -1      -1      -1   
    269       -1      -1      -1   
    270       -1      -1      -1   
    271       -1      -1      -1   
    272        1       7      20   
    273        1       7      21   
    274        1       7      22   
    275        1       7      23   
    276        1       7      24   
    277        1       7      25   
    278        1       8       1   
    279        1       8       2   
    280       -1      -1      -1   
    281       -1      -1      -1   
    282       -1      -1      -1   
    283       -1      -1      -1   
    284       -1      -1      -1   
    285       -1      -1      -1   
    286       -1      -1      -1   
    287       -1      -1      -1   
    288       -1      -1      -1   
    289       -1      -1      -1   
    290       -1      -1      -1   
    291       -1      -1      -1   
    292       -1      -1      -1   
    293       -1      -1      -1   
    294       -1      -1      -1   
    295       -1      -1      -1   
    296       -1      -1      -1   
    297        1       8       3   
    298        1       8       4   
    299        1       8       5   
    300        1       8       6   
    301        1       8       7   
    302        1       8       8   
    303        1       8       9   
    304        1       8      10   
    305       -1      -1      -1   
    306       -1      -1      -1   
    307       -1      -1      -1   
    308       -1      -1      -1   
    309       -1      -1      -1   
    310       -1      -1      -1   
    311       -1      -1      -1   
    312       -1      -1      -1   
    313       -1      -1      -1   
    314       -1      -1      -1   
    315       -1      -1      -1   
    316       -1      -1      -1   
    317       -1      -1      -1   
    318       -1      -1      -1   
    319       -1      -1      -1   
    320       -1      -1      -1   
    321       -1      -1      -1   
    322        1       8      11   
    323        1       8      12   
    324        1       8      13   
    325        1       8      14   
    326        1       8      15   
    327        1       8      16   
    328        1       8      17   
    329        1       8      18   
    330       -1      -1      -1   
    331       -1      -1      -1   
    332       -1      -1      -1   
    333       -1      -1      -1   
    334       -1      -1      -1   
    335       -1      -1      -1   
    336       -1      -1      -1   
    337       -1      -1      -1   
    338       -1      -1      -1   
    339       -1      -1      -1   
    340       -1      -1      -1   
    341       -1      -1      -1   
    342       -1      -1      -1   
    343       -1      -1      -1   
    344       -1      -1      -1   
    345       -1      -1      -1   
    346       -1      -1      -1   
    347        1       8      19   
    348        1       8      20   
    349        1       8      21   
    350        1       8      22   
    351        1       8      23   
    352        1       8      24   
    353        1       8      25   
    354        1       9       1   
    355       -1      -1      -1   
    356       -1      -1      -1   
    357       -1      -1      -1   
    358       -1      -1      -1   
    359       -1      -1      -1   
    360       -1      -1      -1   
    361       -1      -1      -1   
    362       -1      -1      -1   
    363       -1      -1      -1   
    364       -1      -1      -1   
    365       -1      -1      -1   
    366       -1      -1      -1   
    367       -1      -1      -1   
    368       -1      -1      -1   
    369       -1      -1      -1   
    370       -1      -1      -1   
    371       -1      -1      -1   
    372        1       9       2   
    373        1       9       3   
    374        1       9       4   
    375        1       9       5   
    376        1       9       6   
    377        1       9       7   
    378        1       9       8   
    379        1       9       9   
    380       -1      -1      -1   
    381       -1      -1      -1   
    382       -1      -1      -1   
    383       -1      -1      -1   
    384       -1      -1      -1   
    385       -1      -1      -1   
    386       -1      -1      -1   
    387       -1      -1      -1   
    388       -1      -1      -1   
    389       -1      -1      -1   
    390       -1      -1      -1   
    391       -1      -1      -1   
    392       -1      -1      -1   
    393       -1      -1      -1   
    394       -1      -1      -1   
    395       -1      -1      -1   
    396       -1      -1      -1   
    397        1       9      10   
    398        1       9      11   
    399        1       9      12   
    400        1       9      13   
    401        1       9      14   
    402        1       9      15   
    403        1       9      16   
    404        1       9      17   
    405       -1      -1      -1   
    406       -1      -1      -1   
    407       -1      -1      -1   
    408       -1      -1      -1   
    409       -1      -1      -1   
    410       -1      -1      -1   
    411       -1      -1      -1   
    412       -1      -1      -1   
    413       -1      -1      -1   
    414       -1      -1      -1   
    415       -1      -1      -1   
    416       -1      -1      -1   
    417       -1      -1      -1   
    418       -1      -1      -1   
    419       -1      -1      -1   
    420       -1      -1      -1   
    421       -1      -1      -1   
    422        1       9      18   
    423        1       9      19   
    424        1       9      20   
    425        1       9      21   
    426        1       9      22   
    427        1       9      23   
    428        1       9      24   
    429        1       9      25   
    430       -1      -1      -1   
    431       -1      -1      -1   
    432       -1      -1      -1   
    433       -1      -1      -1   
    434       -1      -1      -1   
    435       -1      -1      -1   
    436       -1      -1      -1   
    437       -1      -1      -1   
    438       -1      -1      -1   
    439       -1      -1      -1   
    440       -1      -1      -1   
    441       -1      -1      -1   
    442       -1      -1      -1   
    443       -1      -1      -1   
    444       -1      -1      -1   
    445       -1      -1      -1   
    446       -1      -1      -1   
    447        1      10       1   
    448        1      10       2   
    449        1      10       3   
    450        1      10       4   
    451        1      10       5   
    452        1      10       6   
    453        1      10       7   
    454        1      10       8   
    455       -1      -1      -1   
    456       -1      -1      -1   
    457       -1      -1      -1   
    458       -1      -1      -1   
    459       -1      -1      -1   
    460       -1      -1      -1   
    461       -1      -1      -1   
    462       -1      -1      -1   
    463       -1      -1      -1   
    464       -1      -1      -1   
    465       -1      -1      -1   
    466       -1      -1      -1   
    467       -1      -1      -1   
    468       -1      -1      -1   
    469       -1      -1      -1   
    470       -1      -1      -1   
    471       -1      -1      -1   
    472        1      10       9   
    473        1      10      10   
    474        1      10      11   
    475        1      10      12   
    476        1      10      13   
    477        1      10      14   
    478        1      10      15   
    479        1      10      16   
    480       -1      -1      -1   
    481       -1      -1      -1   
    482       -1      -1      -1   
    483       -1      -1      -1   
    484       -1      -1      -1   
    485       -1      -1      -1   
    486       -1      -1      -1   
    487       -1      -1      -1   
    488       -1      -1      -1   
    489       -1      -1      -1   
    490       -1      -1      -1   
    491       -1      -1      -1   
    492       -1      -1      -1   
    493       -1      -1      -1   
    494       -1      -1      -1   
    495       -1      -1      -1   
    496       -1      -1      -1   
    497        1      10      17   
    498        1      10      18   
    499        1      10      19   
    500        1      10      20   
    501        1      10      21   
    502        1      10      22   
    503        1      10      23   
    504        1      10      24   
    505        1      10      25   
    506        1      11       1   
    507        1      11       2   
    508        1      11       3   
    509        3      12       9   
    510        3      12      10   
    511        3      12      11   
    512        2      10       4   
    513        2      10       5   
    514        2      10       6   
    515        2      23      20   
    516        3      12      16   
    517        3      12      17   
    518        2      10       7   
    519        2      10       8   
    520        1      22      21   
    521        1      22      22   
    522        1      11       4   
    523        1      11       5   
    524        1      11       6   
    525        1      11       7   
    526        1      11       8   
    527        1      11       9   
    528        1      11      10   
    529        1      11      11   
    530        1      11      12   
    531        1      11      13   
    532        1      11      14   
    533        1      11      15   
    534        2      10      23   
    535        2      10      24   
    536        2      10      25   
    537        2      11       1   
    538        2      24      10   
    539        2      11       2   
    540        2      24      11   
    541        3      13      16   
    542        3      13      17   
    543        2      24      12   
    544        2      24      13   
    545        1      23      10   
    546        2      11       3   
    547        1      11      16   
    548        1      11      17   
    549        1      11      18   
    550        1      11      19   
    551        1      11      20   
    552        1      11      21   
    553        1      11      22   
    554        1      11      23   
    555        1      11      24   
    556        1      11      25   
    557        1      12       1   
    558        1      12       2   
    559        1      23      23   
    560        2      11      17   
    561        2      11      18   
    562        2      11      19   
    563        2      11      20   
    564        2      11      21   
    565        2      11      22   
    566        2      11      23   
    567        3      14      17   
    568        3      14      18   
    569        2      25       9   
    570        1      23      24   
    571        1      12       3   
    572        1      12       4   
    573        1      12       5   
    574        1      12       6   
    575        1      12       7   
    576        1      12       8   
    577        1      12       9   
    578        1      12      10   
    579        1      24       8   
    580        1      24       9   
    581        1      24      10   
    582        2      12      10   
    583        1      24      11   
    584        1      24      12   
    585        2      25      25   
    586        2      12      11   
    587        2      12      12   
    588        2      12      13   
    589        3       1       4   
    590        2      12      14   
    591        2      12      15   
    592        2      12      16   
    593        3      15      18   
    594        3      15      19   
    595        1      24      13   
    596        1      12      11   
    597        1      12      12   
    598        1      12      13   
    599        1      12      14   
    600        1      12      15   
    601        3      16       1   
    602        1      24      19   
    603        1      24      20   
    604        1      24      21   
    605        2      12      25   
    606        3      16       6   
    607        3      16       7   
    608        3      16       8   
    609        3      16       9   
    610        3      16      10   
    611        3       1      16   
    612        2      13       1   
    613        2      13       2   
    614        2      13       3   
    615        2      13       4   
    616        2      13       5   
    617        2      13       6   
    618        2      13       7   
    619        2      13       8   
    620        2      13       9   
    621        2      13      10   
    622        1      24      22   
    623        1      24      23   
    624        1      12      16   
    625        1      12      17   
 ----------------------------------


 ---------------------------------------------------------------------------
  CHD NO.    LAYER    ROW     COL   BOUNDNAME                               
 ---------------------------------------------------------------------------
     1         1       7      23    PERIMETER-HEADS                         
     2         1       8       6    PERIMETER-HEADS                         
     3         1       8      14    PERIMETER-HEADS                         
     4         1      10       4    PERIMETER-HEADS                         
     5         1      13      17    PERIMETER-HEADS                         
     6         1      14      17    PERIMETER-HEADS                         
     7         1      15      17    PERIMETER-HEADS                         
     8         1      16      17    PERIMETER-HEADS                         
     9         1      17      17    PERIMETER-HEADS                         
     10        1      17      25    PERIMETER-HEADS                         
     11        1      18       8    PERIMETER-HEADS                         
     12        1      18      16    PERIMETER-HEADS                         
     13        1      18      24    PERIMETER-HEADS                         
     14        1      19       7    PERIMETER-HEADS                         
     15        1      19      15    PERIMETER-HEADS                         
     16        1      19      23    PERIMETER-HEADS                         
     17        1      20       6    PERIMETER-HEADS                         
     18        1      20      14    PERIMETER-HEADS                         
     19        1      20      22    PERIMETER-HEADS                         
     20        1      21       5    PERIMETER-HEADS                         
     21        1      21      13    PERIMETER-HEADS                         
     22        1      21      21    PERIMETER-HEADS                         
     23        1      22       4    PERIMETER-HEADS                         
     24        1      23       1    PERIMETER-HEADS                         
     25        1      24      18    PERIMETER-HEADS                         
     26        1      24      25    PERIMETER-HEADS                         
[...]
     84     (1,4,9)               3.7361100     
     85     (1,4,10)              0.0000000     
     86     (1,4,11)              0.0000000     
     87     (1,4,12)              3.0384284     
     88     (1,4,13)              2.2788628     
     89     (1,4,14)              0.75956200    
     90     (1,4,15)              0.0000000     
     91     (1,4,16)              0.0000000     
     92     (1,4,17)              0.0000000     
     93     (1,4,18)              0.0000000     
     94     (1,4,19)              0.0000000     
     95     (1,4,20)              0.0000000     
     96     (1,4,21)              5.7226240     
     97     (1,4,22)              10.727544     
     98     (1,4,23)              6.3640560     
     99     (1,4,24)              0.0000000     
    100     (1,4,25)              0.0000000     
    101     (1,5,1)               0.0000000     
    102     (1,5,2)               0.0000000     
    103     (1,5,3)               0.0000000     
    104     (1,5,4)               0.0000000     
    105     (1,5,5)               0.0000000     
    106     (1,5,6)               0.0000000     
    107     (1,5,7)               7.4717920     
    108     (1,5,8)               14.943584     
    109     (1,5,9)               14.943580     
    110     (1,5,10)              0.0000000     
    111     (1,5,11)              0.0000000     
    112     (1,5,12)              1.5188660     
    113     (1,5,13)              2.2783408     
    114     (1,5,14)              0.0000000     
    115     (1,5,15)              0.0000000     
    116     (1,5,16)              0.0000000     
    117     (1,5,17)              0.0000000     
    118     (1,5,18)              0.0000000     
    119     (1,5,19)              0.0000000     
    120     (1,5,20)              0.0000000     
    121     (1,5,21)              6.0430160     
    122     (1,5,22)              8.5454080     
    123     (1,5,23)              5.7222280     
    124     (1,5,24)              0.0000000     
    125     (1,5,25)              0.0000000     
    126     (1,6,1)               0.0000000     
    127     (1,6,2)               0.0000000     
    128     (1,6,3)               0.0000000     
    129     (1,6,4)               0.0000000     
    147     (1,6,22)              0.0000000     
    148     (1,6,23)              0.0000000     
    149     (1,6,24)              0.0000000     
    150     (1,6,25)              0.0000000     
    151     (1,7,1)               0.0000000     
    152     (1,7,2)               0.0000000     
    153     (1,7,3)               0.0000000     
    154     (1,7,4)               0.0000000     
    172     (1,7,22)              16.166220     
    173     (1,7,23)              15.452312     
    174     (1,7,24)              11.053780     
    175     (1,7,25)              0.0000000     
    176     (1,8,1)               0.0000000     
    177     (1,8,2)               0.0000000     
    178     (1,8,3)               0.0000000     
    179     (1,8,4)               0.0000000     
    197     (1,8,22)              18.050984     
    198     (1,8,23)              16.745748     
    199     (1,8,24)              15.440516     
    200     (1,8,25)              7.7202560     
    201     (1,9,1)               0.0000000     
    202     (1,9,2)               0.0000000     
    203     (1,9,3)               0.0000000     
    204     (1,9,4)               0.0000000     
    222     (1,9,22)              0.0000000     
    223     (1,9,23)              0.0000000     
    224     (1,9,24)              0.0000000     
    225     (1,9,25)              0.0000000     
    226     (1,10,1)              0.0000000     
    227     (1,10,2)              0.0000000     
    228     (1,10,3)              0.0000000     
    229     (1,10,4)              0.0000000     
    247     (1,10,22)             0.0000000     
    248     (1,10,23)             0.0000000     
    249     (1,10,24)             0.0000000     
    250     (1,10,25)             0.0000000     
    251     (1,11,1)              0.0000000     
    252     (1,11,2)              0.0000000     
    253     (1,11,3)              0.0000000     
    254     (1,11,4)              0.0000000     
    272     (1,11,22)             0.0000000     
    273     (1,11,23)             0.0000000     
    274     (1,11,24)             0.0000000     
    275     (1,11,25)             0.0000000     
    276     (1,12,1)              0.0000000     
    277     (1,12,2)              0.0000000     
    278     (1,12,3)              0.0000000     
    279     (1,12,4)              0.0000000     
    297     (1,12,22)             0.0000000     
    298     (1,12,23)             0.0000000     
    299     (1,12,24)             0.0000000     
    300     (1,12,25)             0.0000000     
    301     (1,13,1)              0.0000000     
    302     (1,13,2)              0.0000000     
    303     (1,13,3)              0.0000000     
    304     (1,13,4)              0.0000000     
    322     (1,13,22)             0.0000000     
    323     (1,13,23)             0.0000000     
    324     (1,13,24)             0.0000000     
    325     (1,13,25)             0.0000000     
    326     (1,14,1)              0.0000000     
    327     (1,14,2)              0.0000000     
    328     (1,14,3)              0.0000000     
    329     (1,14,4)              0.0000000     
    347     (1,14,22)             0.0000000     
    348     (1,14,23)             0.0000000     
    349     (1,14,24)             0.0000000     
    350     (1,14,25)             0.0000000     
    351     (1,15,1)              0.0000000     
    352     (1,15,2)              0.0000000     
    353     (1,15,3)              0.0000000     
    354     (1,15,4)              0.0000000     
    372     (1,15,22)             0.0000000     
    373     (1,15,23)             0.0000000     
    374     (1,15,24)             0.0000000     
    375     (1,15,25)             0.0000000     
    376     (1,16,1)              0.0000000     
    377     (1,16,2)              0.0000000     
    378     (1,16,3)              0.0000000     
    379     (1,16,4)              0.0000000     
    397     (1,16,22)             0.0000000     
    398     (1,16,23)             0.0000000     
    399     (1,16,24)             0.0000000     
    400     (1,16,25)             0.0000000     
    401     (1,17,1)              0.0000000     
    402     (1,17,2)              0.0000000     
    403     (1,17,3)              0.0000000     
    404     (1,17,4)              0.0000000     
    422     (1,17,22)             0.0000000     
    423     (1,17,23)             0.0000000     
    424     (1,17,24)             0.0000000     
    425     (1,17,25)             0.0000000     
    426     (1,18,1)              0.0000000     
    427     (1,18,2)              0.0000000     
    428     (1,18,3)              0.0000000     
    429     (1,18,4)              0.0000000     
    447     (1,18,22)             0.0000000     
    448     (1,18,23)             6.1812560     
    449     (1,18,24)             12.364080     
    450     (1,18,25)             0.0000000     
    451     (1,19,1)              0.0000000     
    452     (1,19,2)              0.0000000     
    453     (1,19,3)              0.0000000     
    454     (1,19,4)              0.0000000     
    472     (1,19,22)             0.0000000     
    473     (1,19,23)             9.9828920     
    474     (1,19,24)             12.363780     
    475     (1,19,25)             12.363780     
    476     (1,20,1)              0.0000000     
    477     (1,20,2)              0.0000000     
    478     (1,20,3)              0.0000000     
    479     (1,20,4)              0.0000000     
    497     (1,20,22)             16.115372     
    498     (1,20,23)             15.444520     
    499     (1,20,24)             6.1817800     
    500     (1,20,25)             6.1817760     
    501     (1,21,1)              0.0000000     
    502     (1,21,2)              0.0000000     
    503     (1,21,3)              0.0000000     
    504     (1,21,4)              0.0000000     
    505     (1,21,5)              0.0000000     
    506     (1,21,6)              0.0000000     
    507     (1,21,7)              0.0000000     
    508     (1,21,8)              0.0000000     
    509     (5,21,9)              0.0000000     
    510     (5,21,10)             0.0000000     
    511     (5,21,11)             0.0000000     
    512     (3,21,12)             0.0000000     
    513     (3,21,13)             0.0000000     
    514     (3,21,14)             0.0000000     
    515     (4,21,15)             0.0000000     
    516     (5,21,16)             0.0000000     
    517     (5,21,17)             0.0000000     
    518     (3,21,18)             6.5626720     
    519     (3,21,19)             7.2384880     
    520     (2,21,20)             3.6192448     
    521     (2,21,21)             0.0000000     
    522     (1,21,22)             8.4892920     
    523     (1,21,23)             8.5465880     
    524     (1,21,24)             4.3079560     
    525     (1,21,25)             0.0000000     
    526     (1,22,1)              0.0000000     
    527     (1,22,2)              0.0000000     
    528     (1,22,3)              0.0000000     
    529     (1,22,4)              0.0000000     
    530     (1,22,5)              0.0000000     
    531     (1,22,6)              0.0000000     
    532     (1,22,7)              0.0000000     
    533     (1,22,8)              0.0000000     
    534     (3,22,9)              0.0000000     
    535     (3,22,10)             0.0000000     
    536     (3,22,11)             0.0000000     
    537     (3,22,12)             0.0000000     
    538     (4,22,13)             0.0000000     
    539     (3,22,14)             0.0000000     
    540     (4,22,15)             0.0000000     
    541     (5,22,16)             0.0000000     
    542     (5,22,17)             3.2850412     
    543     (4,22,18)             10.025116     
    544     (4,22,19)             14.023100     
    545     (2,22,20)             10.630760     
    546     (3,22,21)             0.0000000     
    547     (1,22,22)             0.0000000     
    548     (1,22,23)             0.0000000     
    549     (1,22,24)             0.0000000     
    550     (1,22,25)             0.0000000     
    551     (1,23,1)              0.0000000     
    552     (1,23,2)              0.0000000     
    553     (1,23,3)              0.0000000     
    554     (1,23,4)              0.0000000     
    555     (1,23,5)              0.0000000     
    556     (1,23,6)              0.0000000     
    557     (1,23,7)              0.0000000     
    558     (1,23,8)              0.0000000     
    559     (2,23,9)              0.0000000     
    560     (3,23,10)             0.0000000     
    561     (3,23,11)             0.0000000     
    562     (3,23,12)             0.0000000     
    563     (3,23,13)             0.0000000     
    564     (3,23,14)             0.0000000     
    565     (3,23,15)             0.0000000     
    566     (3,23,16)             0.0000000     
    567     (5,23,17)             0.0000000     
    568     (5,23,18)             3.4625156     
    569     (4,23,19)             0.0000000     
    570     (2,23,20)             3.3922744     
    571     (1,23,21)             3.3922740     
    572     (1,23,22)             0.0000000     
    573     (1,23,23)             0.0000000     
    574     (1,23,24)             0.0000000     
    575     (1,23,25)             0.0000000     
    576     (1,24,1)              0.0000000     
    577     (1,24,2)              0.0000000     
    578     (1,24,3)              0.0000000     
    579     (2,24,4)              0.0000000     
    580     (2,24,5)              0.0000000     
    581     (2,24,6)              0.0000000     
    582     (3,24,7)              0.0000000     
    583     (2,24,8)              0.0000000     
    584     (2,24,9)              0.0000000     
    585     (4,24,10)             11.959316     
    586     (3,24,11)             0.0000000     
    587     (3,24,12)             0.0000000     
    588     (3,24,13)             0.0000000     
    589     (4,24,14)             0.0000000     
    590     (3,24,15)             0.0000000     
    591     (3,24,16)             0.0000000     
    592     (3,24,17)             0.0000000     
    593     (5,24,18)             0.0000000     
    594     (5,24,19)             0.0000000     
    595     (2,24,20)             0.0000000     
    596     (1,24,21)             0.0000000     
    597     (1,24,22)             0.0000000     
    598     (1,24,23)             0.0000000     
    599     (1,24,24)             0.0000000     
    600     (1,24,25)             0.0000000     
    601     (5,25,1)              0.0000000     
    602     (2,25,2)              0.0000000     
    603     (2,25,3)              0.0000000     
    604     (2,25,4)              0.0000000     
    605     (3,25,5)              0.0000000     
    606     (5,25,6)              0.0000000     
    607     (5,25,7)              0.0000000     
    608     (5,25,8)              0.0000000     
    609     (5,25,9)              0.0000000     
    610     (5,25,10)             0.0000000     
    611     (4,25,11)             0.0000000     
    612     (3,25,12)             0.0000000     
    613     (3,25,13)             0.0000000     
    614     (3,25,14)             0.0000000     
    615     (3,25,15)             0.0000000     
    616     (3,25,16)             0.0000000     
    617     (3,25,17)             0.0000000     
    618     (3,25,18)             0.0000000     
    619     (3,25,19)             0.0000000     
    620     (3,25,20)             0.0000000     
    621     (3,25,21)             0.0000000     
    622     (2,25,22)             0.0000000     
    623     (2,25,23)             0.0000000     
    624     (1,25,24)             0.0000000     
    625     (1,25,25)             0.0000000     
 -----------------------------------------------




 HEAD WILL BE SAVED ON UNIT 1118 AT END OF TIME STEP    1, STRESS PERIOD   13


  SFR_0 BUDGET FOR ENTIRE MODEL AT END OF TIME STEP    1, STRESS PERIOD  13
  ------------------------------------------------------------------------------

     CUMULATIVE SFR_0      L**3       RATES FOR THIS TIME STEP      L**3/T
     ------------------                 ------------------------

           IN:                                      IN:
           ---                                      ---
                 GWF =     1112156.3326                   GWF =        2662.3625
            RAINFALL =           0.0000              RAINFALL =           0.0000
         EVAPORATION =           0.0000           EVAPORATION =           0.0000
              RUNOFF =           0.0000                RUNOFF =           0.0000
          EXT-INFLOW =           0.0000            EXT-INFLOW =           0.0000
         EXT-OUTFLOW =           0.0000           EXT-OUTFLOW =           0.0000
             STORAGE =           0.0000               STORAGE =           0.0000
            FROM-MVR =      896842.9877              FROM-MVR =        2381.2490
              TO-MVR =           0.0000                TO-MVR =           0.0000
           AUXILIARY =           0.0000             AUXILIARY =           0.0000

            TOTAL IN =     2008999.3203              TOTAL IN =        5043.6115

          OUT:                                     OUT:
          ----                                     ----
                 GWF =         595.7626                   GWF =          18.2322
            RAINFALL =           0.0000              RAINFALL =           0.0000
         EVAPORATION =           0.0000           EVAPORATION =           0.0000
              RUNOFF =           0.0000                RUNOFF =           0.0000
          EXT-INFLOW =           0.0000            EXT-INFLOW =           0.0000
         EXT-OUTFLOW =     2008403.5576           EXT-OUTFLOW =        5025.3792
             STORAGE =           0.0000               STORAGE =           0.0000
            FROM-MVR =           0.0000              FROM-MVR =           0.0000
              TO-MVR =           0.0000                TO-MVR =           0.0000
           AUXILIARY =           0.0000             AUXILIARY =           0.0000

           TOTAL OUT =     2008999.3203             TOTAL OUT =        5043.6115

            IN - OUT =           0.0000              IN - OUT =      -9.0949E-13

 PERCENT DISCREPANCY =           0.00     PERCENT DISCREPANCY =          -0.00



  VOLUME BUDGET FOR ENTIRE MODEL AT END OF TIME STEP    1, STRESS PERIOD  13
  ---------------------------------------------------------------------------------------------------

     CUMULATIVE VOLUME      L**3       RATES FOR THIS TIME STEP      L**3/T          PACKAGE NAME    
     ------------------                 ------------------------                     ----------------

           IN:                                      IN:
           ---                                      ---
              STO-SS =         582.0604                STO-SS =           1.4933     STORAGE                          
              STO-SY =     2076636.5340                STO-SY =        5901.6293     STORAGE                          
                 WEL =           0.0000                   WEL =           0.0000     WEL_0                            
                RCHA =     2359857.8608                  RCHA =         548.1687     RCHA_0                           
                 CHD =     8270519.0335                   CHD =       21336.7390     CHD_0                            
                 SFR =         595.7534                   SFR =          18.2320     SFR_0                            
        FLOW-JA-FACE =     6910885.7906          FLOW-JA-FACE =       18900.5471     GWF-GWF_1                        
    FLOW-JA-FACE-CHD =           0.0000      FLOW-JA-FACE-CHD =           0.0000     GWF-GWF_1                        

            TOTAL IN =    19619077.0328              TOTAL IN =       46706.8093

          OUT:                                     OUT:
          ----                                     ----
              STO-SS =         269.8427                STO-SS =           0.0000     STORAGE                          
              STO-SY =      853267.9541                STO-SY =           0.0000     STORAGE                          
                 WEL =      439180.5566                   WEL =           0.0000     WEL_0                            
                RCHA =           0.0000                  RCHA =           0.0000     RCHA_0                           
                 CHD =    10293539.0658                   CHD =       26803.3586     CHD_0                            
                 SFR =     1112155.8957                   SFR =        2662.3656     SFR_0                            
        FLOW-JA-FACE =     6920669.1293          FLOW-JA-FACE =       17241.0997     GWF-GWF_1                        
    FLOW-JA-FACE-CHD =           0.0000      FLOW-JA-FACE-CHD =           0.0000     GWF-GWF_1                        

           TOTAL OUT =    19619082.4442             TOTAL OUT =       46706.8239

            IN - OUT =          -5.4114              IN - OUT =      -1.4609E-02

 PERCENT DISCREPANCY =          -0.00     PERCENT DISCREPANCY =          -0.00




         TIME SUMMARY AT END OF TIME STEP    1 IN STRESS PERIOD   13
                    SECONDS     MINUTES      HOURS       DAYS        YEARS
                    -----------------------------------------------------------
   TIME STEP LENGTH 2.67840E+06  44640.      744.00      31.000     8.48734E-02
 STRESS PERIOD TIME 2.67840E+06  44640.      744.00      31.000     8.48734E-02
         TOTAL TIME 3.17088E+07 5.28480E+05  8808.0      367.00      1.0048    


end timestep

