                                   MODFLOW 6
                U.S. GEOLOGICAL SURVEY MODULAR HYDROLOGIC MODEL
                            VERSION 6.6.1 02/10/2025

   MODFLOW 6 compiled Feb 14 2025 13:40:10 with Intel(R) Fortran Intel(R) 64
   Compiler Classic for applications running on Intel(R) 64, Version 2021.7.0
                             Build 20220726_000000

This software has been approved for release by the U.S. Geological 
Survey (USGS). Although the software has been subjected to rigorous 
review, the USGS reserves the right to update the software as needed 
pursuant to further analysis and review. No warranty, expressed or 
implied, is made by the USGS or the U.S. Government as to the 
functionality of the software and related material nor shall the 
fact of release constitute any such warranty. Furthermore, the 
software is released on condition that neither the USGS nor the U.S. 
Government shall be held liable for any damages resulting from its 
authorized or unauthorized use. Also refer to the USGS Water 
Resources Software User Rights Notice for complete use, copyright, 
and distribution information.


As a work of the United States Government, this USGS product is 
in the public domain within the United States. You can copy, 
modify, distribute, and perform the work, even for commercial 
purposes, all without asking permission. Additionally, USGS 
waives copyright and related rights in the work worldwide 
through CC0 1.0 Universal Public Domain Dedication 
(https://creativecommons.org/publicdomain/zero/1.0/).

The following GNU Lesser General Public License (LGPL) libraries
are used in this USGS product:

    SPARSKIT version 2.0
      ilut, luson, and qsplit 
      (https://www-users.cse.umn.edu/~saad/software/SPARSKIT/)

    RCM - Reverse Cuthill McKee Ordering
      (https://people.math.sc.edu/Burkardt/f_src/rcm/rcm.html)

    BLAS - Basic Linear Algebra Subprograms Level 1
      (https://people.math.sc.edu/Burkardt/f_src/blas1_d/blas1_d.html)

    SPARSEKIT - Sparse Matrix Utility Package
      amux, dperm, dvperm, rperm, and cperm
      (https://people.sc.fsu.edu/~jburkardt/f77_src/sparsekit/sparsekit.html)

The following BSD-3 License libraries are used in this USGS product:

    Modern Fortran DAG Library
      Copyright (c) 2018, Jacob Williams
      All rights reserved.
      (https://github.com/jacobwilliams/daglib)

MODFLOW 6 compiler options: /O2 /heap-arrays:0 /fpe:0 /traceback /nologo /fpp
/c /module:win64\mod_mf6\ /object:win64\obj_mf6\

System command used to initiate simulation:
C:\Users\gross.DESKTOP-AIRQM2M\anaconda3\Scripts\mf6.exe

MODFLOW was compiled using uniform precision.

Real Variables
  KIND: 8
  TINY (smallest non-zero value):    2.225074-308
  HUGE (largest value):    1.797693+308
  PRECISION: 15
  SIZE IN BITS: 64

Integer Variables
  KIND: 4
  HUGE (largest value): 2147483647
  SIZE IN BITS: 32

Long Integer Variables
  KIND: 8
  HUGE (largest value): 9223372036854775807
  SIZE IN BITS: 64

Logical Variables
  KIND: 4
  SIZE IN BITS: 32
 

 OPENED mfsim.nam
 FILE TYPE:NAM6               UNIT 1001   STATUS:OLD                 
 FORMAT:FORMATTED              ACCESS:SEQUENTIAL          
 ACTION:READ                

 # sm_tmr model version 0.post67.dev0+g98604a4
 # File generated by Flopy version 3.10.0.dev1 on 11/19/2025 at 17:46:50.
 # via modflow-setup version 0.6.0 at 2025-11-19 17:46:51

 OPENED sm_tmr.tdis
 FILE TYPE:TDIS6              UNIT 1002   STATUS:OLD                 
 FORMAT:FORMATTED              ACCESS:SEQUENTIAL          
 ACTION:READ                

 # sm_tmr model version 0.post67.dev0+g98604a4
 # File generated by Flopy version 3.10.0.dev1 on 11/19/2025 at 17:46:50.
 # via modflow-setup version 0.6.0 at 2025-11-19 17:46:51
 # perlen nstp tsmult

 OPENED sm_tmr.nam
 FILE TYPE:GWF6               UNIT 1003   STATUS:OLD                 
 FORMAT:FORMATTED              ACCESS:SEQUENTIAL          
 ACTION:READ                

 # sm_tmr model version 0.post67.dev0+g98604a4
 # File generated by Flopy version 3.10.0.dev1 on 11/19/2025 at 17:46:50.
 # via modflow-setup version 0.6.0 at 2025-11-19 17:46:51

 OPENED sm_tmr.dis
 FILE TYPE:DIS6               UNIT 1004   STATUS:OLD                 
 FORMAT:FORMATTED              ACCESS:SEQUENTIAL          
 ACTION:READ                

 # sm_tmr model version 0.post67.dev0+g98604a4
 # File generated by Flopy version 3.10.0.dev1 on 11/19/2025 at 17:46:50.
 # via modflow-setup version 0.6.0 at 2025-11-19 17:46:51

 OPENED sm_tmr.npf
 FILE TYPE:NPF6               UNIT 1032   STATUS:OLD                 
 FORMAT:FORMATTED              ACCESS:SEQUENTIAL          
 ACTION:READ                

 # sm_tmr model version 0.post67.dev0+g98604a4
 # File generated by Flopy version 3.10.0.dev1 on 11/19/2025 at 17:46:50.
 # via modflow-setup version 0.6.0 at 2025-11-19 17:46:51

 OPENED sm_tmr.sto
 FILE TYPE:STO6               UNIT 1059   STATUS:OLD                 
 FORMAT:FORMATTED              ACCESS:SEQUENTIAL          
 ACTION:READ                

 # sm_tmr model version 0.post67.dev0+g98604a4
 # File generated by Flopy version 3.10.0.dev1 on 11/19/2025 at 17:46:50.
 # via modflow-setup version 0.6.0 at 2025-11-19 17:46:51

 OPENED sm_tmr.ic
 FILE TYPE:IC6                UNIT 1086   STATUS:OLD                 
 FORMAT:FORMATTED              ACCESS:SEQUENTIAL          
 ACTION:READ                

 # sm_tmr model version 0.post67.dev0+g98604a4
 # File generated by Flopy version 3.10.0.dev1 on 11/19/2025 at 17:46:50.
 # via modflow-setup version 0.6.0 at 2025-11-19 17:46:51

 OPENED sm_tmr.oc
 FILE TYPE:OC6       UNIT 1100   STATUS:OLD                 
 FORMAT:FORMATTED              ACCESS:SEQUENTIAL          
 ACTION:READ                


 OPENED sm_tmr.wel
 FILE TYPE:WEL6               UNIT 1101   STATUS:OLD                 
 FORMAT:FORMATTED              ACCESS:SEQUENTIAL          
 ACTION:READ                

 # sm_tmr model version 0.post67.dev0+g98604a4
 # File generated by Flopy version 3.10.0.dev1 on 11/19/2025 at 17:46:50.
 # via modflow-setup version 0.6.0 at 2025-11-19 17:46:51

 OPENED sm_tmr.riv
 FILE TYPE:RIV6               UNIT 1102   STATUS:OLD                 
 FORMAT:FORMATTED              ACCESS:SEQUENTIAL          
 ACTION:READ                

 # sm_tmr model version 0.post67.dev0+g98604a4
 # File generated by Flopy version 3.10.0.dev1 on 11/19/2025 at 17:46:50.
 # via modflow-setup version 0.6.0 at 2025-11-19 17:46:51

 OPENED sm_tmr.rcha
 FILE TYPE:RCH6               UNIT 1104   STATUS:OLD                 
 FORMAT:FORMATTED              ACCESS:SEQUENTIAL          
 ACTION:READ                

 # sm_tmr model version 0.post67.dev0+g98604a4
 # File generated by Flopy version 3.10.0.dev1 on 11/19/2025 at 17:46:50.
 # via modflow-setup version 0.6.0 at 2025-11-19 17:46:51

 OPENED sm_tmr.sfr
 FILE TYPE:SFR6      UNIT 1105   STATUS:OLD                 
 FORMAT:FORMATTED              ACCESS:SEQUENTIAL          
 ACTION:READ                


 READING SIMULATION OPTIONS
    MAXIMUM NUMBER OF ERRORS THAT WILL BE STORED IS 1000
 END OF SIMULATION OPTIONS

 READING SIMULATION TIMING

 TDIS -- TEMPORAL DISCRETIZATION PACKAGE,
 VERSION 1 : 11/13/2014 - INPUT READ FROM MEMPATH: __INPUT__/SIM/TDIS                                
 PROCESSING TDIS OPTIONS
    SIMULATION TIME UNIT IS DAYS
    SIMULATION STARTING DATE AND TIME IS 1998-04-01                    
 END OF TDIS OPTIONS
 PROCESSING TDIS DIMENSIONS
   19 STRESS PERIOD(S) IN SIMULATION
 END OF TDIS DIMENSIONS
 PROCESSING TDIS PERIODDATA


 STRESS PERIOD     LENGTH       TIME STEPS     MULTIPLIER FOR DELT
 ----------------------------------------------------------------------------
        1         1.000000          1                    1.000
        2         3287.000         10                    1.500
        3         183.0000          5                    1.500
        4         183.0000          5                    1.500
        5         183.0000          5                    1.500
        6         182.0000          5                    1.500
        7         183.0000          5                    1.500
        8         182.0000          5                    1.500
        9         183.0000          5                    1.500
       10         182.0000          5                    1.500
       11         183.0000          5                    1.500
       12         183.0000          5                    1.500
       13         183.0000          5                    1.500
       14         182.0000          5                    1.500
       15         183.0000          5                    1.500
       16         182.0000          5                    1.500
       17         183.0000          5                    1.500
       18         182.0000          5                    1.500
       19         183.0000          5                    1.500
 END OF TDIS PERIODDATA
 END OF SIMULATION TIMING

 READING SIMULATION MODELS
    GWF6 model 1 will be created
 END OF SIMULATION MODELS

 READING SIMULATION EXCHANGES
 END OF SIMULATION EXCHANGES

 READING SOLUTIONGROUP

 Creating solution: SLN_1           

 OPENED sm_tmr.ims
 FILE TYPE:IMS   UNIT 1107   STATUS:OLD                 
 FORMAT:FORMATTED              ACCESS:SEQUENTIAL          
 ACTION:READ                

 END OF SOLUTIONGROUP

PROCESSING MODEL CONNECTIONS

 OPENED .\external\wel_000.dat
 FILE TYPE:OPEN/CLOSE   UNIT 1113   STATUS:OLD                 
 FORMAT:FORMATTED              ACCESS:SEQUENTIAL          
 ACTION:READ                


 OPENED .\external\riv_000.dat
 FILE TYPE:OPEN/CLOSE   UNIT 1114   STATUS:OLD                 
 FORMAT:FORMATTED              ACCESS:SEQUENTIAL          
 ACTION:READ                


 IMS -- ITERATIVE MODEL SOLUTION PACKAGE, VERSION 6, 4/28/2017
         INPUT READ FROM UNIT 1107
 # sm_tmr model version 0.post67.dev0+g98604a4
 # File generated by Flopy version 3.10.0.dev1 on 11/19/2025 at 17:46:50.
 # via modflow-setup version 0.6.0 at 2025-11-19 17:46:51

 PROCESSING IMS OPTIONS

 OPENED solver_outer_out.csv
 FILE TYPE:CSV_OUTER_OUTPUT   UNIT 1120   STATUS:REPLACE             
 FORMAT:FORMATTED              ACCESS:SEQUENTIAL          
 ACTION:READWRITE           

    CSV OUTPUT WILL BE SAVED TO FILE: solver_outer_out.csv
    OPENED ON UNIT:    1120
 END OF IMS OPTIONS

 PROCESSING IMS NONLINEAR
 END OF IMS NONLINEAR DATA
 **UNDER-RELAXATION WILL BE USED***
 

 PROCESSING LINEAR DATA
 END OF LINEAR DATA
 ***IMS LINEAR SOLVER WILL BE USED***

 IMSLINEAR -- UNSTRUCTURED LINEAR SOLUTION PACKAGE, VERSION 8, 04/28/2017
 An asymmetric matrix will be solved

 OUTER ITERATION CONVERGENCE CRITERION    (DVCLOSE) =    0.100000E+00
 MAXIMUM NUMBER OF OUTER ITERATIONS        (MXITER) = 200
 SOLVER PRINTOUT INDEX                     (IPRIMS) = 2
 NONLINEAR ITERATION METHOD            (NONLINMETH) = 3
 LINEAR SOLUTION METHOD                   (LINMETH) = 1
 UNDER-RELAXATION WEIGHT REDUCTION FACTOR   (THETA) =    0.700000E+00
 UNDER-RELAXATION WEIGHT INCREASE INCREMENT (KAPPA) =    0.100000E+00
 UNDER-RELAXATION PREVIOUS HISTORY FACTOR   (GAMMA) =    0.000000E+00
 UNDER-RELAXATION MOMENTUM TERM         (AMOMENTUM) =    0.000000E+00

       SOLUTION BY THE BICONJUGATE-GRADIENT STABILIZED METHOD
 ------------------------------------------------------------------
 MAXIMUM OF 200 CALLS OF SOLUTION ROUTINE
 MAXIMUM OF 100 INTERNAL ITERATIONS PER CALL TO SOLUTION ROUTINE
 LINEAR ACCELERATION METHOD            = BCGS      
 MATRIX PRECONDITIONING TYPE           = INCOMPLETE LUT      
 MATRIX SCALING APPROACH               = NO SCALING          
 MATRIX REORDERING APPROACH            = ORIGINAL ORDERING        
 NUMBER OF ORTHOGONALIZATIONS          = 0
 HEAD CHANGE CRITERION FOR CLOSURE     =    0.10000E-01
 RESIDUAL CHANGE CRITERION FOR CLOSURE =    0.10000E-03
 RESIDUAL CONVERGENCE OPTION           = 3
 RESIDUAL CONVERGENCE NORM             = RELATIVE L2NORM 
 RELAXATION FACTOR                     =    0.00000E+00
 NUMBER OF LEVELS                      =              7
 DROP TOLERANCE                        =    0.10000E-02


 
    Solving:  Stress period:     1    Time step:     1
 
1
 STRESS PERIOD NO. 1, LENGTH =   1.000000    
 ------------------------------------------
 NUMBER OF TIME STEPS = 1
 MULTIPLIER FOR DELT =     1.000
 #k i j q boundname

 OPENED .\external\wel_001.dat
 FILE TYPE:OPEN/CLOSE   UNIT 1121   STATUS:OLD                 
 FORMAT:FORMATTED              ACCESS:SEQUENTIAL          
 ACTION:READ                

 #k i j stage cond rbot boundname
 INITIAL TIME STEP SIZE =   1.000000    



 PSEUDO-TRANSIENT CONTINUATION WILL BE APPLIED TO MODEL 1 ("SM_TMR") DURING THIS TIME STEP

 SLN_1 OUTER ITERATION SUMMARY
 ----------------------------------------------------------------------------------------------------------
                                OUTER      INNER                    STEP   MAXIMUM CHANGE MODEL-(CELLID) OR
 OUTER ITERATION STEP       ITERATION  ITERATION  MAXIMUM CHANGE SUCCESS             MODEL-PACKAGE-(NUMBER)
 ----------------------------------------------------------------------------------------------------------
 Model                              1         18      -5.9644470                            1_GWF-(4,26,35)
 Model                              2         19      -1.8758944                             1_GWF-(4,16,9)
 Model                              3         16     -0.71983463                            1_GWF-(4,10,16)
 Model                              4         15     -0.28027237                            1_GWF-(4,16,15)
 Model                              5          5     -0.17070743                            1_GWF-(1,28,14)
 Model                              6          6     -0.19110797                            1_GWF-(1,28,14)
 Model                              7          6 -8.52664704E-02       *                    1_GWF-(1,27,15)
 Package                            7             3.98414787E-02       *            1_GWF-SFR_0-(214)-stage
 ----------------------------------------------------------------------------------------------------------


 7 CALLS TO NUMERICAL SOLUTION IN TIME STEP 1 STRESS PERIOD 1
 85 TOTAL ITERATIONS

 SLN_1 INNER ITERATION SUMMARY
 --------------------------------------------------------------------------------------------------------------------------------------
      TOTAL      OUTER      INNER                                                            MAXIMUM                                   
  ITERATION  ITERATION  ITERATION  MAXIMUM CHANGE      MAXIMUM CHANGE MODEL-(CELLID)        RESIDUAL    MAXIMUM RESIDUAL MODEL-(CELLID)
 --------------------------------------------------------------------------------------------------------------------------------------
          1          1          1      -5.3353176                    1_GWF-(4,26,35)       17717.284                    1_GWF-(6,11,30)
          2          1          2      -1.7976882                   1_GWF-(11,25,33)       4814.3356                     1_GWF-(6,8,29)
          3          1          3      -1.9453531                   1_GWF-(11,16,33)       2585.6474                     1_GWF-(7,6,27)
          4          1          4     -0.72730079                     1_GWF-(13,7,7)       1285.7352                     1_GWF-(7,6,27)
          5          1          5     -0.57222673                     1_GWF-(13,7,7)       954.75322                     1_GWF-(7,5,26)
          6          1          6     -0.34657123                    1_GWF-(11,5,33)       742.99861                     1_GWF-(6,5,32)
          7          1          7     -0.43331332                    1_GWF-(11,5,33)       654.12250                     1_GWF-(6,5,32)
          8          1          8     -0.38992516                    1_GWF-(13,5,32)       424.04960                     1_GWF-(6,5,32)
          9          1          9     -0.48942605                    1_GWF-(11,5,33)       313.19814                     1_GWF-(6,5,32)
         10          1         10     -0.33734687                    1_GWF-(13,5,32)       231.55797                    1_GWF-(11,21,6)
         11          1         11     -0.51189654                    1_GWF-(11,21,5)       145.88645                    1_GWF-(11,21,6)
         12          1         12     -0.38173383                    1_GWF-(11,22,5)      -102.00030                     1_GWF-(6,6,32)
         13          1         13     -0.35838521                    1_GWF-(11,26,5)      -158.31868                     1_GWF-(6,6,32)
         14          1         14     -0.20813605                    1_GWF-(11,25,5)      -102.05461                     1_GWF-(6,6,32)
         15          1         15     -0.10666226                    1_GWF-(11,26,5)      -95.774173                     1_GWF-(6,6,32)
         16          1         16 -5.34289154E-02                    1_GWF-(11,26,5)      -72.778197                     1_GWF-(6,6,32)
         17          1         17  5.18830709E-02                    1_GWF-(11,5,33)      -54.724626                     1_GWF-(6,6,32)
         18          1         18  5.06505945E-02                    1_GWF-(11,5,33)      -34.820963                     1_GWF-(6,6,32)
         19          2          1      -1.1002295                    1_GWF-(4,18,14)       1206.3314                   1_GWF-(11,23,12)
         20          2          2     -0.37369699                   1_GWF-(10,21,14)       571.63935                    1_GWF-(11,15,9)
         21          2          3     -0.28439021                    1_GWF-(12,15,9)       377.24841                    1_GWF-(11,18,9)
         22          2          4     -0.22198155                    1_GWF-(12,16,9)       267.52385                    1_GWF-(11,18,9)
         23          2          5     -0.20660716                    1_GWF-(12,16,8)       194.48486                    1_GWF-(11,19,8)
         24          2          6     -0.15365179                    1_GWF-(12,16,7)       169.48455                    1_GWF-(11,19,8)
         25          2          7     -0.18894413                    1_GWF-(12,17,6)       155.73013                    1_GWF-(11,20,7)
         26          2          8     -0.18943258                    1_GWF-(12,17,5)       162.15159                    1_GWF-(11,21,6)
         27          2          9     -0.21371155                    1_GWF-(12,18,5)       145.93249                    1_GWF-(11,21,6)
         28          2         10     -0.22084495                    1_GWF-(12,19,5)       120.06327                    1_GWF-(11,21,6)
         29          2         11      -1.5485501                    1_GWF-(12,20,5)      -157.98742                    1_GWF-(11,20,7)
         30          2         12       1.1319586                    1_GWF-(12,19,5)       24.472961                    1_GWF-(11,25,6)
         31          2         13     -0.11964288                    1_GWF-(11,26,5)       17.006695                     1_GWF-(6,5,32)
         32          2         14 -5.01077598E-02                    1_GWF-(11,26,5)       11.595430                    1_GWF-(11,25,6)
         33          2         15 -3.57603036E-02                    1_GWF-(11,26,5)       8.8274174                    1_GWF-(11,24,5)
         34          2         16 -2.85058481E-02                    1_GWF-(11,26,5)       6.9848290                    1_GWF-(11,21,6)
         35          2         17 -2.98805697E-02                    1_GWF-(11,26,5)       5.1758265                    1_GWF-(11,21,6)
         36          2         18 -2.57399117E-02                    1_GWF-(11,26,5)       3.1573648                    1_GWF-(11,21,6)
         37          2         19 -1.91532147E-02                    1_GWF-(11,26,5)       1.5719201                     1_GWF-(12,7,7)
         38          3          1     -0.60895156                    1_GWF-(4,16,15)       558.57287                   1_GWF-(11,23,12)
         39          3          2     -0.15605759                    1_GWF-(13,9,17)       168.11303                   1_GWF-(11,17,10)
         40          3          3     -0.12039058                    1_GWF-(13,7,19)       116.48717                    1_GWF-(11,18,9)
         41          3          4 -5.32670944E-02                   1_GWF-(11,17,10)       77.974770                    1_GWF-(11,18,9)
         42          3          5 -4.74523787E-02                    1_GWF-(12,17,9)       61.524951                    1_GWF-(11,19,8)
         43          3          6 -3.11303777E-02                    1_GWF-(11,22,9)       47.005013                    1_GWF-(11,19,8)
         44          3          7 -3.63812972E-02                    1_GWF-(11,21,9)       46.994332                    1_GWF-(11,20,7)
         45          3          8 -3.47993133E-02                    1_GWF-(11,19,8)       45.272198                    1_GWF-(11,21,6)
         46          3          9 -4.88986169E-02                    1_GWF-(11,21,5)       46.049280                    1_GWF-(11,21,6)
         47          3         10 -5.07641519E-02                    1_GWF-(12,20,5)       36.407401                    1_GWF-(11,21,6)
         48          3         11 -7.02258196E-02                    1_GWF-(11,21,5)       28.277953                    1_GWF-(11,21,6)
         49          3         12 -9.98367639E-02                    1_GWF-(11,22,5)      -15.693855                     1_GWF-(6,5,27)
         50          3         13 -4.21117952E-02                    1_GWF-(11,23,5)      -12.923166                     1_GWF-(6,5,27)
         51          3         14 -1.88957412E-02                    1_GWF-(11,24,5)      -10.263086                     1_GWF-(6,5,27)
         52          3         15 -1.03723304E-02                    1_GWF-(11,26,5)      -7.4620733                     1_GWF-(6,5,27)
         53          3         16 -5.10263390E-03                    1_GWF-(11,26,5)      -5.5774345                     1_GWF-(6,5,27)
         54          4          1     -0.26784294                    1_GWF-(4,16,15)       250.35236                   1_GWF-(11,23,12)
         55          4          2 -7.02176996E-02                   1_GWF-(10,21,14)       67.705985                   1_GWF-(11,23,10)
         56          4          3 -4.24241647E-02                   1_GWF-(11,24,11)       36.465749                   1_GWF-(11,23,10)
         57          4          4 -2.23162081E-02                   1_GWF-(11,23,10)       24.987429                    1_GWF-(11,18,9)
         58          4          5 -1.93585488E-02                   1_GWF-(11,24,10)       19.880773                    1_GWF-(11,19,8)
         59          4          6 -1.34022391E-02                    1_GWF-(11,24,9)       16.479939                    1_GWF-(11,20,8)
         60          4          7 -1.50416104E-02                    1_GWF-(11,24,8)       16.477748                    1_GWF-(11,21,6)
         61          4          8 -1.47753056E-02                    1_GWF-(11,24,8)       17.175092                    1_GWF-(11,21,6)
         62          4          9 -2.05710287E-02                    1_GWF-(11,26,5)       16.832451                    1_GWF-(11,21,6)
         63          4         10 -2.02422440E-02                    1_GWF-(11,25,5)       14.624127                    1_GWF-(11,21,6)
         64          4         11 -2.58314472E-02                    1_GWF-(11,24,5)       11.379760                    1_GWF-(11,21,6)
         65          4         12 -4.15580927E-02                    1_GWF-(11,24,5)       5.5169424                    1_GWF-(11,21,6)
         66          4         13 -2.10132842E-02                    1_GWF-(11,24,5)      -2.9368002                     1_GWF-(6,5,27)
         67          4         14 -1.01450736E-02                    1_GWF-(11,24,5)      -2.3971360                     1_GWF-(6,5,27)
         68          4         15 -4.47036673E-03                    1_GWF-(11,25,5)      -1.5573241                     1_GWF-(6,5,27)
         69          5          1     -0.12155126                    1_GWF-(4,15,17)       111.45583                   1_GWF-(11,23,12)
         70          5          2 -4.29532395E-02                   1_GWF-(11,28,14)       45.946698                   1_GWF-(11,27,13)
         71          5          3 -3.42283704E-02                   1_GWF-(11,27,14)       19.341003                   1_GWF-(11,27,13)
         72          5          4 -1.36556193E-02                   1_GWF-(11,28,14)       11.623612                    1_GWF-(11,18,9)
         73          5          5 -7.94354047E-03                   1_GWF-(11,24,10)       9.2251164                    1_GWF-(11,19,8)
         74          6          1 -8.44244286E-02                    1_GWF-(1,28,14)       77.211544                   1_GWF-(11,27,14)
         75          6          2 -4.88176403E-02                   1_GWF-(10,28,14)       34.975354                   1_GWF-(11,27,14)
         76          6          3 -3.33103325E-02                   1_GWF-(11,28,14)       13.796432                    1_GWF-(11,18,9)
         77          6          4 -2.02377623E-02                   1_GWF-(11,28,14)       10.260977                    1_GWF-(11,20,8)
         78          6          5 -1.05273482E-02                    1_GWF-(11,24,8)       9.6104904                    1_GWF-(11,20,7)
         79          6          6 -5.31068260E-03                    1_GWF-(11,26,7)       8.8871496                    1_GWF-(11,21,6)
         80          7          1 -2.71051565E-02                    1_GWF-(1,27,15)       42.398260                   1_GWF-(11,26,14)
         81          7          2 -1.95645005E-02                   1_GWF-(11,27,15)       19.658682                   1_GWF-(11,27,13)
         82          7          3 -1.99672490E-02                   1_GWF-(11,28,14)       10.794902                   1_GWF-(11,27,13)
         83          7          4 -1.56267543E-02                   1_GWF-(11,28,14)       7.9043992                    1_GWF-(11,21,7)
         84          7          5 -1.00860742E-02                    1_GWF-(11,25,7)       7.9956099                    1_GWF-(11,21,6)
         85          7          6 -7.76581581E-03                    1_GWF-(11,25,5)       7.2236822                    1_GWF-(11,21,6)
 --------------------------------------------------------------------------------------------------------------------------------------


 
    Solving:  Stress period:     2    Time step:     1
 
1
 STRESS PERIOD NO. 2, LENGTH =   3287.000    
 ------------------------------------------
 NUMBER OF TIME STEPS = 10
 MULTIPLIER FOR DELT =     1.500
 #k i j q boundname

 OPENED .\external\wel_002.dat
 FILE TYPE:OPEN/CLOSE   UNIT 1124   STATUS:OLD                 
 FORMAT:FORMATTED              ACCESS:SEQUENTIAL          
 ACTION:READ                

 INITIAL TIME STEP SIZE =   29.00377    

 SLN_1 OUTER ITERATION SUMMARY
 ----------------------------------------------------------------------------------------------------------
                                OUTER      INNER                    STEP   MAXIMUM CHANGE MODEL-(CELLID) OR
 OUTER ITERATION STEP       ITERATION  ITERATION  MAXIMUM CHANGE SUCCESS             MODEL-PACKAGE-(NUMBER)
 ----------------------------------------------------------------------------------------------------------
 Model                              1          4     -0.44297170                           1_GWF-(13,27,10)
 Model                              2          2 -5.12722354E-02       *                    1_GWF-(4,26,17)
 Package                            2                  302.16488                   1_GWF-SFR_0-(197)-inflow
 Model                              3          1 -7.97105044E-03       *                     1_GWF-(4,6,11)
 Package                            3                  96.891553                   1_GWF-SFR_0-(197)-inflow
 Model                              4          1 -2.28367681E-03       *                    1_GWF-(1,24,13)
 Package                            4                  30.475187                   1_GWF-SFR_0-(197)-inflow
 Model                              5          1 -7.73165481E-04       *                   1_GWF-(11,24,13)
 Package                            5                  9.8453371                   1_GWF-SFR_0-(197)-inflow
 Model                              6          1 -2.45302791E-04       *                   1_GWF-(11,26,12)
 Package                            6                  2.8910941                   1_GWF-SFR_0-(197)-inflow
 Model                              7          1 -7.82937169E-05       *                   1_GWF-(11,26,12)
 Package                            7                 0.79641628                   1_GWF-SFR_0-(197)-inflow
 Model                              8          1 -2.79491642E-05       *                   1_GWF-(11,26,14)
 Package                            8                 0.22305124                   1_GWF-SFR_0-(197)-inflow
 Model                              9          1 -1.01950747E-05       *                   1_GWF-(11,26,14)
 Package                            9             6.31514813E-02       *           1_GWF-SFR_0-(197)-inflow
 ----------------------------------------------------------------------------------------------------------


 9 CALLS TO NUMERICAL SOLUTION IN TIME STEP 1 STRESS PERIOD 2
 13 TOTAL ITERATIONS

 SLN_1 INNER ITERATION SUMMARY
 --------------------------------------------------------------------------------------------------------------------------------------
      TOTAL      OUTER      INNER                                                            MAXIMUM                                   
  ITERATION  ITERATION  ITERATION  MAXIMUM CHANGE      MAXIMUM CHANGE MODEL-(CELLID)        RESIDUAL    MAXIMUM RESIDUAL MODEL-(CELLID)
 --------------------------------------------------------------------------------------------------------------------------------------
          1          1          1     -0.38643816                   1_GWF-(13,27,10)       219.81138                    1_GWF-(11,21,6)
          2          1          2 -4.81244463E-02                   1_GWF-(13,27,10)       67.256690                    1_GWF-(11,18,8)
          3          1          3 -2.10545297E-02                    1_GWF-(12,24,8)       10.629391                    1_GWF-(11,19,7)
          4          1          4 -1.82885786E-03                    1_GWF-(12,22,8)       2.7665587                    1_GWF-(11,19,7)
          5          2          1 -4.99738984E-02                    1_GWF-(4,26,17)       24.181736                   1_GWF-(11,26,14)
          6          2          2 -4.90039412E-03                   1_GWF-(11,26,14)       3.3537615                   1_GWF-(11,27,13)
          7          3          1 -7.97105044E-03                     1_GWF-(4,6,11)       5.6960050                   1_GWF-(11,23,12)
          8          4          1 -2.28367681E-03                    1_GWF-(1,24,13)       2.8085739                   1_GWF-(11,23,12)
          9          5          1 -7.73165481E-04                   1_GWF-(11,24,13)       1.0624582                   1_GWF-(11,23,12)
         10          6          1 -2.45302791E-04                   1_GWF-(11,26,12)      0.34907503                   1_GWF-(11,23,12)
         11          7          1 -7.82937169E-05                   1_GWF-(11,26,12)      0.12789547                   1_GWF-(11,27,13)
         12          8          1 -2.79491642E-05                   1_GWF-(11,26,14)  4.56758858E-02                   1_GWF-(11,27,13)
         13          9          1 -1.01950747E-05                   1_GWF-(11,26,14)  1.56692410E-02                   1_GWF-(11,27,13)
 --------------------------------------------------------------------------------------------------------------------------------------


 
    Solving:  Stress period:     2    Time step:     2
 

 SLN_1 OUTER ITERATION SUMMARY
 ----------------------------------------------------------------------------------------------------------
                                OUTER      INNER                    STEP   MAXIMUM CHANGE MODEL-(CELLID) OR
 OUTER ITERATION STEP       ITERATION  ITERATION  MAXIMUM CHANGE SUCCESS             MODEL-PACKAGE-(NUMBER)
 ----------------------------------------------------------------------------------------------------------
 Model                              1          4     -0.34431233                            1_GWF-(1,27,10)
 Model                              2          2 -8.19393294E-02       *                    1_GWF-(4,26,18)
 Package                            2                  343.25916                   1_GWF-SFR_0-(197)-inflow
 Model                              3          1 -9.50043252E-03       *                    1_GWF-(4,26,18)
 Package                            3                  135.10014                   1_GWF-SFR_0-(162)-inflow
 Model                              4          1 -2.85619544E-03       *                    1_GWF-(1,24,13)
 Package                            4                  49.186032                   1_GWF-SFR_0-(197)-inflow
 Model                              5          1 -1.16026104E-03       *                   1_GWF-(11,24,13)
 Package                            5                  18.875116                   1_GWF-SFR_0-(197)-inflow
 Model                              6          1 -4.53318610E-04       *                   1_GWF-(11,26,12)
 Package                            6                  6.8437767                   1_GWF-SFR_0-(197)-inflow
 Model                              7          1 -1.78756860E-04       *                   1_GWF-(11,24,11)
 Package                            7                  2.4146646                   1_GWF-SFR_0-(197)-inflow
 Model                              8          1 -8.58093119E-05       *                   1_GWF-(11,24,11)
 Package                            8                 0.85623016                   1_GWF-SFR_0-(197)-inflow
 Model                              9          1 -4.07675462E-05       *                   1_GWF-(11,24,11)
 Package                            9                 0.31509280                   1_GWF-SFR_0-(197)-inflow
 Model                             10          1 -1.92565992E-05       *                   1_GWF-(11,24,11)
 Package                           10                 0.12185675                   1_GWF-SFR_0-(197)-inflow
 Model                             11          1 -9.76776849E-06       *                   1_GWF-(11,23,10)
 Package                           11             4.91631397E-02       *           1_GWF-SFR_0-(197)-inflow
 ----------------------------------------------------------------------------------------------------------


 11 CALLS TO NUMERICAL SOLUTION IN TIME STEP 2 STRESS PERIOD 2
 15 TOTAL ITERATIONS

 SLN_1 INNER ITERATION SUMMARY
 --------------------------------------------------------------------------------------------------------------------------------------
      TOTAL      OUTER      INNER                                                            MAXIMUM                                   
  ITERATION  ITERATION  ITERATION  MAXIMUM CHANGE      MAXIMUM CHANGE MODEL-(CELLID)        RESIDUAL    MAXIMUM RESIDUAL MODEL-(CELLID)
 --------------------------------------------------------------------------------------------------------------------------------------
          1          1          1     -0.28272574                    1_GWF-(1,27,10)       226.81790                     1_GWF-(6,5,27)
          2          1          2 -7.44277134E-02                    1_GWF-(11,25,9)       51.619781                    1_GWF-(11,20,7)
          3          1          3 -1.39593849E-02                    1_GWF-(12,23,8)       17.506372                    1_GWF-(11,20,7)
          4          1          4 -5.37553078E-03                    1_GWF-(12,22,8)       5.9245846                    1_GWF-(11,20,6)
          5          2          1 -8.02770627E-02                    1_GWF-(4,26,18)       20.234357                   1_GWF-(11,25,13)
          6          2          2 -6.16076870E-03                   1_GWF-(11,27,16)       5.6154565                   1_GWF-(11,26,14)
          7          3          1 -9.50043252E-03                    1_GWF-(4,26,18)       7.1552002                   1_GWF-(11,23,12)
          8          4          1 -2.85619544E-03                    1_GWF-(1,24,13)       4.0665271                   1_GWF-(11,23,12)
          9          5          1 -1.16026104E-03                   1_GWF-(11,24,13)       1.8448640                   1_GWF-(11,23,12)
         10          6          1 -4.53318610E-04                   1_GWF-(11,26,12)      0.78615236                   1_GWF-(11,24,11)
         11          7          1 -1.78756860E-04                   1_GWF-(11,24,11)      0.33523914                   1_GWF-(11,24,11)
         12          8          1 -8.58093119E-05                   1_GWF-(11,24,11)      0.14344928                   1_GWF-(11,23,10)
         13          9          1 -4.07675462E-05                   1_GWF-(11,24,11)  6.78184666E-02                   1_GWF-(11,23,10)
         14         10          1 -1.92565992E-05                   1_GWF-(11,24,11)  3.10135676E-02                   1_GWF-(11,23,10)
         15         11          1 -9.76776849E-06                   1_GWF-(11,23,10)  1.60606720E-02                    1_GWF-(11,18,8)
 --------------------------------------------------------------------------------------------------------------------------------------


 
    Solving:  Stress period:     2    Time step:     3
 

 SLN_1 OUTER ITERATION SUMMARY
 ----------------------------------------------------------------------------------------------------------
                                OUTER      INNER                    STEP   MAXIMUM CHANGE MODEL-(CELLID) OR
 OUTER ITERATION STEP       ITERATION  ITERATION  MAXIMUM CHANGE SUCCESS             MODEL-PACKAGE-(NUMBER)
 ----------------------------------------------------------------------------------------------------------
 Model                              1          4     -0.27169628                            1_GWF-(1,27,10)
 Model                              2          2 -8.98189495E-02       *                    1_GWF-(4,26,19)
 Package                            2                  466.78379                   1_GWF-SFR_0-(197)-inflow
 Model                              3          2 -2.08587869E-02       *                     1_GWF-(4,12,7)
 Package                            3                  195.16263                   1_GWF-SFR_0-(162)-inflow
 Model                              4          1 -9.03166520E-03       *                     1_GWF-(1,12,6)
 Package                            4                  82.917618                   1_GWF-SFR_0-(197)-inflow
 Model                              5          1 -3.43904299E-03       *                     1_GWF-(1,12,6)
 Package                            5                  28.409553                   1_GWF-SFR_0-(197)-inflow
 Model                              6          1 -1.93643983E-03       *                     1_GWF-(1,12,6)
 Package                            6                  12.057251                   1_GWF-SFR_0-(197)-inflow
 Model                              7          1 -1.11529847E-03       *                     1_GWF-(1,12,6)
 Package                            7                  4.8220243                   1_GWF-SFR_0-(197)-inflow
 Model                              8          1 -6.74046381E-04       *                     1_GWF-(1,12,6)
 Package                            8                  1.9796906                   1_GWF-SFR_0-(197)-inflow
 Model                              9          1 -4.11685577E-04       *                     1_GWF-(1,12,6)
 Package                            9                 0.83434868                   1_GWF-SFR_0-(197)-inflow
 Model                             10          1 -2.55251822E-04       *                     1_GWF-(1,12,6)
 Package                           10                 0.38065343                   1_GWF-SFR_0-(197)-inflow
 Model                             11          1 -1.57059762E-04       *                     1_GWF-(1,12,6)
 Package                           11                 0.19586555                   1_GWF-SFR_0-(197)-inflow
 Model                             12          1 -9.55725389E-05       *                     1_GWF-(1,12,6)
 Package                           12                 0.10131598                   1_GWF-SFR_0-(197)-inflow
 Model                             13          1 -5.80207590E-05       *                     1_GWF-(1,12,6)
 Package                           13             5.61154556E-02       *           1_GWF-SFR_0-(197)-inflow
 ----------------------------------------------------------------------------------------------------------


 13 CALLS TO NUMERICAL SOLUTION IN TIME STEP 3 STRESS PERIOD 2
 18 TOTAL ITERATIONS

 SLN_1 INNER ITERATION SUMMARY
 --------------------------------------------------------------------------------------------------------------------------------------
      TOTAL      OUTER      INNER                                                            MAXIMUM                                   
  ITERATION  ITERATION  ITERATION  MAXIMUM CHANGE      MAXIMUM CHANGE MODEL-(CELLID)        RESIDUAL    MAXIMUM RESIDUAL MODEL-(CELLID)
 --------------------------------------------------------------------------------------------------------------------------------------
          1          1          1     -0.24349945                     1_GWF-(4,4,15)       210.88767                     1_GWF-(6,5,27)
          2          1          2     -0.11357120                    1_GWF-(12,25,7)      -87.236971                     1_GWF-(7,5,26)
          3          1          3 -2.57854083E-02                    1_GWF-(13,5,14)       24.244039                    1_GWF-(11,21,6)
          4          1          4 -8.86871183E-03                    1_GWF-(12,21,7)       8.9076279                    1_GWF-(11,20,7)
          5          2          1 -8.89005356E-02                    1_GWF-(4,26,19)       19.854157                    1_GWF-(12,13,7)
          6          2          2 -3.69106905E-03                    1_GWF-(12,13,7)       3.8541674                   1_GWF-(11,26,14)
          7          3          1 -1.87542009E-02                     1_GWF-(4,12,7)       11.784816                    1_GWF-(11,14,6)
          8          3          2 -3.20450544E-03                    1_GWF-(12,12,6)       3.0275164                    1_GWF-(12,14,6)
          9          4          1 -9.03166520E-03                     1_GWF-(1,12,6)       8.5224138                    1_GWF-(12,12,6)
         10          5          1 -3.43904299E-03                     1_GWF-(1,12,6)       4.5169502                    1_GWF-(12,12,6)
         11          6          1 -1.93643983E-03                     1_GWF-(1,12,6)       2.5779265                    1_GWF-(12,12,6)
         12          7          1 -1.11529847E-03                     1_GWF-(1,12,6)       1.5157705                    1_GWF-(12,12,6)
         13          8          1 -6.74046381E-04                     1_GWF-(1,12,6)      0.91184308                    1_GWF-(12,12,6)
         14          9          1 -4.11685577E-04                     1_GWF-(1,12,6)      0.52838189                    1_GWF-(12,12,6)
         15         10          1 -2.55251822E-04                     1_GWF-(1,12,6)      0.31841904                    1_GWF-(12,12,6)
         16         11          1 -1.57059762E-04                     1_GWF-(1,12,6)      0.19650567                    1_GWF-(12,12,6)
         17         12          1 -9.55725389E-05                     1_GWF-(1,12,6)      0.11979634                    1_GWF-(12,12,6)
         18         13          1 -5.80207590E-05                     1_GWF-(1,12,6)  7.28459182E-02                    1_GWF-(12,12,6)
 --------------------------------------------------------------------------------------------------------------------------------------


 
    Solving:  Stress period:     2    Time step:     4
 

 SLN_1 OUTER ITERATION SUMMARY
 ----------------------------------------------------------------------------------------------------------
                                OUTER      INNER                    STEP   MAXIMUM CHANGE MODEL-(CELLID) OR
 OUTER ITERATION STEP       ITERATION  ITERATION  MAXIMUM CHANGE SUCCESS             MODEL-PACKAGE-(NUMBER)
 ----------------------------------------------------------------------------------------------------------
 Model                              1          4     -0.35873237                             1_GWF-(1,26,5)
 Model                              2          2 -8.45922942E-02       *                    1_GWF-(4,26,20)
 Package                            2                  665.99381                   1_GWF-SFR_0-(197)-inflow
 Model                              3          2 -1.86026180E-02       *                    1_GWF-(4,12,11)
 Package                            3                  276.41332                   1_GWF-SFR_0-(197)-inflow
 Model                              4          1 -5.45161956E-03       *                    1_GWF-(4,12,11)
 Package                            4                  135.44428                   1_GWF-SFR_0-(197)-inflow
 Model                              5          1 -2.46649576E-03       *                     1_GWF-(1,11,6)
 Package                            5                  57.470538                   1_GWF-SFR_0-(162)-inflow
 Model                              6          1 -1.56940268E-03       *                     1_GWF-(1,11,6)
 Package                            6                  29.169744                   1_GWF-SFR_0-(197)-inflow
 Model                              7          1 -1.08215553E-03       *                     1_GWF-(1,11,6)
 Package                            7                  14.559485                   1_GWF-SFR_0-(197)-inflow
 Model                              8          1 -7.93718978E-04       *                     1_GWF-(1,11,6)
 Package                            8                  7.2479481                   1_GWF-SFR_0-(197)-inflow
 Model                              9          1 -5.86507642E-04       *                     1_GWF-(1,11,6)
 Package                            9                  3.6959306                   1_GWF-SFR_0-(197)-inflow
 Model                             10          1 -4.30740027E-04       *                     1_GWF-(1,11,6)
 Package                           10                  1.9130303                   1_GWF-SFR_0-(197)-inflow
 Model                             11          1 -2.88442936E-04       *                     1_GWF-(1,11,6)
 Package                           11                  1.0341339                   1_GWF-SFR_0-(197)-inflow
 Model                             12          1 -1.80925110E-04       *                     1_GWF-(1,11,6)
 Package                           12                 0.57708335                   1_GWF-SFR_0-(197)-inflow
 Model                             13          1 -1.09030420E-04       *                     1_GWF-(1,11,6)
 Package                           13                 0.32781873                   1_GWF-SFR_0-(197)-inflow
 Model                             14          1 -6.32375514E-05       *                     1_GWF-(1,11,6)
 Package                           14                 0.18950358                   1_GWF-SFR_0-(197)-inflow
 Model                             15          1 -3.90399204E-05       *                    1_GWF-(11,20,7)
 Package                           15                 0.10848640                   1_GWF-SFR_0-(197)-inflow
 Model                             16          1 -2.40638306E-05       *                    1_GWF-(11,20,7)
 Package                           16             6.06787615E-02       *           1_GWF-SFR_0-(197)-inflow
 ----------------------------------------------------------------------------------------------------------


 16 CALLS TO NUMERICAL SOLUTION IN TIME STEP 4 STRESS PERIOD 2
 21 TOTAL ITERATIONS

 SLN_1 INNER ITERATION SUMMARY
 --------------------------------------------------------------------------------------------------------------------------------------
      TOTAL      OUTER      INNER                                                            MAXIMUM                                   
  ITERATION  ITERATION  ITERATION  MAXIMUM CHANGE      MAXIMUM CHANGE MODEL-(CELLID)        RESIDUAL    MAXIMUM RESIDUAL MODEL-(CELLID)
 --------------------------------------------------------------------------------------------------------------------------------------
          1          1          1     -0.31632865                    1_GWF-(13,4,15)       198.37480                    1_GWF-(11,21,6)
          2          1          2     -0.18378972                    1_GWF-(11,25,7)      -113.72112                   1_GWF-(11,26,15)
          3          1          3 -6.51262150E-02                    1_GWF-(13,5,14)      -36.651206                     1_GWF-(11,8,7)
          4          1          4  9.72557755E-03                    1_GWF-(13,6,23)      -31.418983                     1_GWF-(6,5,27)
          5          2          1 -8.20079008E-02                    1_GWF-(4,26,20)       29.076052                    1_GWF-(12,11,6)
          6          2          2 -8.75068412E-03                    1_GWF-(12,12,6)       9.8753737                    1_GWF-(11,20,7)
          7          3          1 -1.85568356E-02                    1_GWF-(4,12,11)       10.828612                    1_GWF-(12,10,5)
          8          3          2 -3.82069172E-03                    1_GWF-(12,11,6)       4.2567216                    1_GWF-(11,20,8)
          9          4          1 -5.45161956E-03                    1_GWF-(4,12,11)       6.2696842                    1_GWF-(12,11,6)
         10          5          1 -2.46649576E-03                     1_GWF-(1,11,6)       3.6656888                    1_GWF-(12,11,6)
         11          6          1 -1.56940268E-03                     1_GWF-(1,11,6)       2.3115372                    1_GWF-(12,11,6)
         12          7          1 -1.08215553E-03                     1_GWF-(1,11,6)       1.7677623                    1_GWF-(11,18,9)
         13          8          1 -7.93718978E-04                     1_GWF-(1,11,6)       1.3037118                    1_GWF-(11,18,9)
         14          9          1 -5.86507642E-04                     1_GWF-(1,11,6)      0.90744663                    1_GWF-(11,19,8)
         15         10          1 -4.30740027E-04                     1_GWF-(1,11,6)     -0.70359978                     1_GWF-(1,11,6)
         16         11          1 -2.88442936E-04                     1_GWF-(1,11,6)     -0.65241316                     1_GWF-(1,11,6)
         17         12          1 -1.80925110E-04                     1_GWF-(1,11,6)     -0.49338598                     1_GWF-(1,11,6)
         18         13          1 -1.09030420E-04                     1_GWF-(1,11,6)     -0.34289703                     1_GWF-(1,11,6)
         19         14          1 -6.32375514E-05                     1_GWF-(1,11,6)     -0.22438001                     1_GWF-(1,11,6)
         20         15          1 -3.90399204E-05                    1_GWF-(11,20,7)     -0.13692738                     1_GWF-(1,11,6)
         21         16          1 -2.40638306E-05                    1_GWF-(11,20,7) -7.88138874E-02                     1_GWF-(1,11,6)
 --------------------------------------------------------------------------------------------------------------------------------------


 
    Solving:  Stress period:     2    Time step:     5
 

 SLN_1 OUTER ITERATION SUMMARY
 ----------------------------------------------------------------------------------------------------------
                                OUTER      INNER                    STEP   MAXIMUM CHANGE MODEL-(CELLID) OR
 OUTER ITERATION STEP       ITERATION  ITERATION  MAXIMUM CHANGE SUCCESS             MODEL-PACKAGE-(NUMBER)
 ----------------------------------------------------------------------------------------------------------
 Model                              1          7     -0.50043263                             1_GWF-(1,26,5)
 Model                              2          2 -8.76638401E-02       *                    1_GWF-(4,27,23)
 Package                            2                  959.55086                   1_GWF-SFR_0-(197)-inflow
 Model                              3          2 -2.37475658E-02       *                    1_GWF-(4,11,12)
 Package                            3                  431.86547                   1_GWF-SFR_0-(197)-inflow
 Model                              4          1 -9.32946305E-03       *                    1_GWF-(4,10,11)
 Package                            4                  224.25433                   1_GWF-SFR_0-(197)-inflow
 Model                              5          1 -2.71008746E-03       *                    1_GWF-(1,24,13)
 Package                            5                  99.956692                   1_GWF-SFR_0-(197)-inflow
 Model                              6          1 -1.56950627E-03       *                   1_GWF-(11,24,13)
 Package                            6                  53.769106                   1_GWF-SFR_0-(197)-inflow
 Model                              7          1 -9.59622530E-04       *                   1_GWF-(11,24,11)
 Package                            7                  29.078487                   1_GWF-SFR_0-(197)-inflow
 Model                              8          1 -6.94921783E-04       *                   1_GWF-(11,24,11)
 Package                            8                  15.559671                   1_GWF-SFR_0-(197)-inflow
 Model                              9          1 -4.98525201E-04       *                   1_GWF-(11,24,11)
 Package                            9                  8.4365323                   1_GWF-SFR_0-(197)-inflow
 Model                             10          1 -3.56389096E-04       *                   1_GWF-(11,23,10)
 Package                           10                  4.7598148                   1_GWF-SFR_0-(197)-inflow
 Model                             11          1 -2.69945503E-04       *                   1_GWF-(11,23,10)
 Package                           11                  2.8162219                   1_GWF-SFR_0-(197)-inflow
 Model                             12          1 -2.01600774E-04       *                   1_GWF-(11,23,10)
 Package                           12                  1.7382764                   1_GWF-SFR_0-(197)-inflow
 Model                             13          1 -1.50379902E-04       *                    1_GWF-(11,24,9)
 Package                           13                  1.1103574                   1_GWF-SFR_0-(197)-inflow
 Model                             14          1 -1.15922511E-04       *                    1_GWF-(11,22,9)
 Package                           14                 0.72561454                   1_GWF-SFR_0-(197)-inflow
 Model                             15          1 -8.97544421E-05       *                    1_GWF-(11,21,8)
 Package                           15                 0.47499338                   1_GWF-SFR_0-(197)-inflow
 Model                             16          1 -7.01568578E-05       *                    1_GWF-(11,20,7)
 Package                           16                 0.30489219                   1_GWF-SFR_0-(197)-inflow
 Model                             17          1 -5.12889373E-05       *                    1_GWF-(12,19,6)
 Package                           17                 0.18877522                   1_GWF-SFR_0-(197)-inflow
 Model                             18          1 -3.43974388E-05       *                    1_GWF-(12,19,6)
 Package                           18                 0.11141954                   1_GWF-SFR_0-(197)-inflow
 Model                             19          1 -2.10455757E-05       *                    1_GWF-(11,21,6)
 Package                           19             6.28888524E-02       *           1_GWF-SFR_0-(197)-inflow
 ----------------------------------------------------------------------------------------------------------


 19 CALLS TO NUMERICAL SOLUTION IN TIME STEP 5 STRESS PERIOD 2
 27 TOTAL ITERATIONS

 SLN_1 INNER ITERATION SUMMARY
 --------------------------------------------------------------------------------------------------------------------------------------
      TOTAL      OUTER      INNER                                                            MAXIMUM                                   
  ITERATION  ITERATION  ITERATION  MAXIMUM CHANGE      MAXIMUM CHANGE MODEL-(CELLID)        RESIDUAL    MAXIMUM RESIDUAL MODEL-(CELLID)
 --------------------------------------------------------------------------------------------------------------------------------------
          1          1          1     -0.38679034                    1_GWF-(13,4,16)       214.86092                    1_GWF-(11,21,6)
          2          1          2     -0.26663453                    1_GWF-(11,25,6)      -183.21890                   1_GWF-(11,26,15)
          3          1          3     -0.15663624                    1_GWF-(13,4,15)       148.28304                    1_GWF-(5,26,16)
          4          1          4  9.16740424E-02                    1_GWF-(13,4,15)      -30.688472                   1_GWF-(11,27,14)
          5          1          5  1.00224573E-02                   1_GWF-(11,27,14)      -16.748724                     1_GWF-(6,5,27)
          6          1          6  1.00950872E-02                   1_GWF-(11,28,14)      -10.846273                     1_GWF-(6,5,27)
          7          1          7 -6.32866269E-03                    1_GWF-(13,20,5)      0.92858188                    1_GWF-(11,20,7)
          8          2          1 -8.42827333E-02                    1_GWF-(4,27,23)       29.477575                     1_GWF-(8,10,5)
          9          2          2 -8.63993000E-03                    1_GWF-(12,11,6)       10.145801                    1_GWF-(12,11,6)
         10          3          1 -2.33773564E-02                    1_GWF-(4,11,12)       14.683171                     1_GWF-(8,10,5)
         11          3          2 -5.64781439E-03                     1_GWF-(7,11,4)       5.7391187                    1_GWF-(12,11,6)
         12          4          1 -9.32946305E-03                    1_GWF-(4,10,11)       6.6719254                   1_GWF-(11,23,12)
         13          5          1 -2.71008746E-03                    1_GWF-(1,24,13)       4.9757102                   1_GWF-(11,23,12)
         14          6          1 -1.56950627E-03                   1_GWF-(11,24,13)       3.3115195                   1_GWF-(11,24,11)
         15          7          1 -9.59622530E-04                   1_GWF-(11,24,11)       2.1747815                   1_GWF-(11,24,11)
         16          8          1 -6.94921783E-04                   1_GWF-(11,24,11)       1.4035070                   1_GWF-(11,24,11)
         17          9          1 -4.98525201E-04                   1_GWF-(11,24,11)       1.0524166                    1_GWF-(11,18,9)
         18         10          1 -3.56389096E-04                   1_GWF-(11,23,10)      0.81537770                    1_GWF-(11,18,9)
         19         11          1 -2.69945503E-04                   1_GWF-(11,23,10)      0.62197390                    1_GWF-(11,18,9)
         20         12          1 -2.01600774E-04                   1_GWF-(11,23,10)      0.48002390                    1_GWF-(11,19,8)
         21         13          1 -1.50379902E-04                    1_GWF-(11,24,9)      0.37133051                    1_GWF-(11,19,8)
         22         14          1 -1.15922511E-04                    1_GWF-(11,22,9)      0.27192777                    1_GWF-(11,19,8)
         23         15          1 -8.97544421E-05                    1_GWF-(11,21,8)     -0.19400732                    1_GWF-(4,13,12)
         24         16          1 -7.01568578E-05                    1_GWF-(11,20,7)     -0.13860444                    1_GWF-(4,13,12)
         25         17          1 -5.12889373E-05                    1_GWF-(12,19,6) -8.92810070E-02                    1_GWF-(4,13,12)
         26         18          1 -3.43974388E-05                    1_GWF-(12,19,6) -5.28211657E-02                    1_GWF-(4,22,13)
         27         19          1 -2.10455757E-05                    1_GWF-(11,21,6) -2.97482610E-02                    1_GWF-(4,22,13)
 --------------------------------------------------------------------------------------------------------------------------------------


 
    Solving:  Stress period:     2    Time step:     6
 

 SLN_1 OUTER ITERATION SUMMARY
 ----------------------------------------------------------------------------------------------------------
                                OUTER      INNER                    STEP   MAXIMUM CHANGE MODEL-(CELLID) OR
 OUTER ITERATION STEP       ITERATION  ITERATION  MAXIMUM CHANGE SUCCESS             MODEL-PACKAGE-(NUMBER)
 ----------------------------------------------------------------------------------------------------------
 Model                              1          8     -0.63925879                             1_GWF-(1,26,5)
 Model                              2          3 -8.36793401E-02       *                     1_GWF-(4,8,10)
 Package                            2                  1288.3805                   1_GWF-SFR_0-(197)-inflow
 Model                              3          3 -6.88384870E-02       *                    1_GWF-(4,13,12)
 Package                            3                  570.51081                   1_GWF-SFR_0-(197)-inflow
 Model                              4          2 -3.39967887E-02       *                    1_GWF-(4,13,11)
 Package                            4                  270.25368                   1_GWF-SFR_0-(197)-inflow
 Model                              5          1 -6.65017671E-03       *                    1_GWF-(4,14,13)
 Package                            5                  122.74591                   1_GWF-SFR_0-(197)-inflow
 Model                              6          1 -2.17683979E-03       *                    1_GWF-(4,12,10)
 Package                            6                  45.170416                   1_GWF-SFR_0-(197)-inflow
 Model                              7          1 -1.51673164E-03       *                    1_GWF-(12,14,9)
 Package                            7                  22.544692                   1_GWF-SFR_0-(197)-inflow
 Model                              8          1 -1.30393993E-03       *                    1_GWF-(12,14,9)
 Package                            8                  13.271870                   1_GWF-SFR_0-(197)-inflow
 Model                              9          1 -1.17021277E-03       *                    1_GWF-(12,14,8)
 Package                            9                  8.2403374                   1_GWF-SFR_0-(197)-inflow
 Model                             10          1 -1.04675884E-03       *                    1_GWF-(12,15,8)
 Package                           10                  5.1937347                   1_GWF-SFR_0-(197)-inflow
 Model                             11          1 -9.13828970E-04       *                    1_GWF-(12,15,7)
 Package                           11                  3.0914035                   1_GWF-SFR_0-(197)-inflow
 Model                             12          1 -4.96825261E-04       *                    1_GWF-(12,17,6)
 Package                           12                  1.9244046                   1_GWF-SFR_0-(197)-inflow
 Model                             13          1 -4.23559330E-04       *                    1_GWF-(13,18,6)
 Package                           13                 0.85549284                   1_GWF-SFR_0-(197)-inflow
 Model                             14          1 -9.16925148E-05       *                     1_GWF-(9,17,6)
 Package                           14                 0.59073936                   1_GWF-SFR_0-(197)-inflow
 Model                             15          1 -9.92261107E-05       *                    1_GWF-(12,18,5)
 Package                           15                 0.13533820                   1_GWF-SFR_0-(197)-inflow
 Model                             16          1 -8.97876509E-05       *                    1_GWF-(12,20,6)
 Package                           16                 0.14609265                   1_GWF-SFR_0-(197)-inflow
 Model                             17          1 -2.55206873E-05       *                    1_GWF-(12,18,5)
 Package                           17                 0.10725280                   1_GWF-SFR_0-(197)-inflow
 Model                             18          1 -5.70224922E-05       *                    1_GWF-(12,20,6)
 Package                           18             4.23939849E-02       *           1_GWF-SFR_0-(197)-inflow
 ----------------------------------------------------------------------------------------------------------


 18 CALLS TO NUMERICAL SOLUTION IN TIME STEP 6 STRESS PERIOD 2
 30 TOTAL ITERATIONS

 SLN_1 INNER ITERATION SUMMARY
 --------------------------------------------------------------------------------------------------------------------------------------
      TOTAL      OUTER      INNER                                                            MAXIMUM                                   
  ITERATION  ITERATION  ITERATION  MAXIMUM CHANGE      MAXIMUM CHANGE MODEL-(CELLID)        RESIDUAL    MAXIMUM RESIDUAL MODEL-(CELLID)
 --------------------------------------------------------------------------------------------------------------------------------------
          1          1          1     -0.43738064                     1_GWF-(4,4,16)       217.40330                    1_GWF-(11,21,6)
          2          1          2     -0.35587344                    1_GWF-(12,25,6)      -244.32195                   1_GWF-(11,26,15)
          3          1          3       1.4112769                   1_GWF-(11,26,16)       2885.3714                    1_GWF-(5,26,16)
          4          1          4      -1.5795625                   1_GWF-(11,26,16)      -708.09736                   1_GWF-(11,26,15)
          5          1          5     -0.17357481                    1_GWF-(13,6,23)      -273.54316                    1_GWF-(5,26,16)
          6          1          6     -0.23710101                    1_GWF-(11,22,6)      -9.4366325                     1_GWF-(6,5,27)
          7          1          7 -1.22438734E-02                    1_GWF-(13,20,5)      -8.4196177                     1_GWF-(7,7,26)
          8          1          8 -3.32130928E-03                   1_GWF-(13,28,17)       1.0239913                   1_GWF-(11,27,15)
          9          2          1 -7.83403736E-02                    1_GWF-(4,14,13)       31.104427                    1_GWF-(12,10,7)
         10          2          2 -1.04610578E-02                    1_GWF-(12,11,8)       13.974135                     1_GWF-(12,8,7)
         11          2          3 -8.71150822E-03                     1_GWF-(12,7,8)       7.4138161                     1_GWF-(12,8,7)
         12          3          1 -6.17766909E-02                    1_GWF-(4,13,12)       26.654909                    1_GWF-(11,15,9)
         13          3          2 -1.05244701E-02                   1_GWF-(11,14,10)       12.928935                    1_GWF-(11,15,9)
         14          3          3 -7.37726217E-03                    1_GWF-(12,14,9)       5.8748904                    1_GWF-(11,15,9)
         15          4          1 -2.97264811E-02                    1_GWF-(4,13,11)       13.099823                    1_GWF-(11,15,9)
         16          4          2 -5.54824307E-03                   1_GWF-(12,14,10)       6.7531435                    1_GWF-(11,15,9)
         17          5          1 -6.65017671E-03                    1_GWF-(4,14,13)       6.0430805                    1_GWF-(11,15,9)
         18          6          1 -2.17683979E-03                    1_GWF-(4,12,10)       4.6855888                    1_GWF-(11,15,9)
         19          7          1 -1.51673164E-03                    1_GWF-(12,14,9)       3.4627365                    1_GWF-(11,15,9)
         20          8          1 -1.30393993E-03                    1_GWF-(12,14,9)       2.4382858                    1_GWF-(11,16,9)
         21          9          1 -1.17021277E-03                    1_GWF-(12,14,8)      -2.4704920                    1_GWF-(4,12,10)
         22         10          1 -1.04675884E-03                    1_GWF-(12,15,8)      -2.6736679                    1_GWF-(4,12,10)
         23         11          1 -9.13828970E-04                    1_GWF-(12,15,7)      -2.1553201                    1_GWF-(4,12,10)
         24         12          1 -4.96825261E-04                    1_GWF-(12,17,6)      -1.2520873                    1_GWF-(4,12,10)
         25         13          1 -4.23559330E-04                    1_GWF-(13,18,6)     -0.29006056                    1_GWF-(4,22,13)
         26         14          1 -9.16925148E-05                     1_GWF-(9,17,6)      0.25436532                    1_GWF-(11,20,7)
         27         15          1 -9.92261107E-05                    1_GWF-(12,18,5)      0.12972958                    1_GWF-(11,21,6)
         28         16          1 -8.97876509E-05                    1_GWF-(12,20,6)      0.13262521                    1_GWF-(11,20,7)
         29         17          1 -2.55206873E-05                    1_GWF-(12,18,5)  6.44499237E-02                    1_GWF-(11,21,6)
         30         18          1 -5.70224922E-05                    1_GWF-(12,20,6)  6.08380109E-02                    1_GWF-(11,7,29)
 --------------------------------------------------------------------------------------------------------------------------------------


 
    Solving:  Stress period:     2    Time step:     7
 

 SLN_1 OUTER ITERATION SUMMARY
 ----------------------------------------------------------------------------------------------------------
                                OUTER      INNER                    STEP   MAXIMUM CHANGE MODEL-(CELLID) OR
 OUTER ITERATION STEP       ITERATION  ITERATION  MAXIMUM CHANGE SUCCESS             MODEL-PACKAGE-(NUMBER)
 ----------------------------------------------------------------------------------------------------------
 Model                              1          7     -0.73632203                             1_GWF-(1,26,5)
 Model                              2          4     -0.12151406                            1_GWF-(4,11,10)
 Model                              3          2 -1.94432061E-02       *                    1_GWF-(4,22,13)
 Package                            3                  846.46415                   1_GWF-SFR_0-(197)-inflow
 Model                              4          2 -1.20330950E-02       *                    1_GWF-(4,22,13)
 Package                            4                  415.78032                   1_GWF-SFR_0-(197)-inflow
 Model                              5          1 -9.96599757E-03       *                    1_GWF-(4,22,13)
 Package                            5                  198.88482                   1_GWF-SFR_0-(197)-inflow
 Model                              6          1 -4.39318365E-03       *                    1_GWF-(4,22,13)
 Package                            6                  81.615680                   1_GWF-SFR_0-(197)-inflow
 Model                              7          1 -2.53909004E-03       *                    1_GWF-(4,22,13)
 Package                            7                  47.815560                   1_GWF-SFR_0-(197)-inflow
 Model                              8          1 -1.60165196E-03       *                    1_GWF-(4,22,13)
 Package                            8                  29.038404                   1_GWF-SFR_0-(197)-inflow
 Model                              9          1 -1.07976028E-03       *                    1_GWF-(4,22,13)
 Package                            9                  18.468921                   1_GWF-SFR_0-(197)-inflow
 Model                             10          1 -9.13135348E-04       *                   1_GWF-(11,24,10)
 Package                           10                  12.389916                   1_GWF-SFR_0-(197)-inflow
 Model                             11          1 -7.75431206E-04       *                   1_GWF-(11,24,10)
 Package                           11                  8.6914605                   1_GWF-SFR_0-(197)-inflow
 Model                             12          1 -6.72473995E-04       *                    1_GWF-(11,24,9)
 Package                           12                  6.3083642                   1_GWF-SFR_0-(197)-inflow
 Model                             13          1 -5.89205520E-04       *                    1_GWF-(11,23,9)
 Package                           13                  4.7035856                   1_GWF-SFR_0-(197)-inflow
 Model                             14          1 -5.22981042E-04       *                    1_GWF-(11,24,8)
 Package                           14                  3.5862831                   1_GWF-SFR_0-(197)-inflow
 Model                             15          1 -4.73104823E-04       *                    1_GWF-(11,23,7)
 Package                           15                  2.7856263                   1_GWF-SFR_0-(197)-inflow
 Model                             16          1 -4.31732189E-04       *                    1_GWF-(11,23,7)
 Package                           16                  2.1897547                   1_GWF-SFR_0-(197)-inflow
 Model                             17          1 -3.88116465E-04       *                    1_GWF-(12,22,6)
 Package                           17                  1.7245512                   1_GWF-SFR_0-(197)-inflow
 Model                             18          1 -3.42275728E-04       *                    1_GWF-(11,23,6)
 Package                           18                  1.3516829                   1_GWF-SFR_0-(197)-inflow
 Model                             19          1 -2.93487900E-04       *                    1_GWF-(13,22,5)
 Package                           19                  1.0545661                   1_GWF-SFR_0-(197)-inflow
 Model                             20          1 -2.46360930E-04       *                    1_GWF-(13,22,5)
 Package                           20                 0.81994277                   1_GWF-SFR_0-(197)-inflow
 Model                             21          1 -2.02282149E-04       *                    1_GWF-(13,22,5)
 Package                           21                 0.63607817                   1_GWF-SFR_0-(197)-inflow
 Model                             22          1 -1.63206739E-04       *                    1_GWF-(13,22,5)
 Package                           22                 0.49343464                   1_GWF-SFR_0-(197)-inflow
 Model                             23          1 -1.30173135E-04       *                    1_GWF-(13,22,5)
 Package                           23                 0.38274891                   1_GWF-SFR_0-(197)-inflow
 Model                             24          1 -1.02880265E-04       *                    1_GWF-(13,22,5)
 Package                           24                 0.29733828                   1_GWF-SFR_0-(197)-inflow
 Model                             25          1 -8.09400909E-05       *                    1_GWF-(13,22,5)
 Package                           25                 0.23097710                   1_GWF-SFR_0-(197)-inflow
 Model                             26          1 -6.33991813E-05       *                    1_GWF-(13,22,5)
 Package                           26                 0.17972746                   1_GWF-SFR_0-(197)-inflow
 Model                             27          1 -4.95774389E-05       *                    1_GWF-(13,22,5)
 Package                           27                 0.13979504                   1_GWF-SFR_0-(197)-inflow
 Model                             28          1 -3.87239395E-05       *                    1_GWF-(13,22,5)
 Package                           28                 0.10885015                   1_GWF-SFR_0-(197)-inflow
 Model                             29          1 -3.01691011E-05       *                    1_GWF-(13,22,5)
 Package                           29             8.47878860E-02       *           1_GWF-SFR_0-(197)-inflow
 ----------------------------------------------------------------------------------------------------------


 29 CALLS TO NUMERICAL SOLUTION IN TIME STEP 7 STRESS PERIOD 2
 40 TOTAL ITERATIONS

 SLN_1 INNER ITERATION SUMMARY
 --------------------------------------------------------------------------------------------------------------------------------------
      TOTAL      OUTER      INNER                                                            MAXIMUM                                   
  ITERATION  ITERATION  ITERATION  MAXIMUM CHANGE      MAXIMUM CHANGE MODEL-(CELLID)        RESIDUAL    MAXIMUM RESIDUAL MODEL-(CELLID)
 --------------------------------------------------------------------------------------------------------------------------------------
          1          1          1     -0.45564235                     1_GWF-(4,4,16)       200.56697                    1_GWF-(11,21,6)
          2          1          2     -0.45501876                    1_GWF-(11,25,5)      -304.32753                   1_GWF-(11,26,15)
          3          1          3 -3.46395526E-02                   1_GWF-(11,26,16)      -251.69269                   1_GWF-(11,27,15)
          4          1          4      0.12732324                   1_GWF-(13,12,18)      -101.62832                   1_GWF-(11,26,15)
          5          1          5     -0.21470260                    1_GWF-(11,22,6)      -63.975324                   1_GWF-(11,27,13)
          6          1          6  7.55123239E-02                    1_GWF-(11,22,6)      -17.927586                     1_GWF-(7,5,26)
          7          1          7  4.79962143E-03                   1_GWF-(10,27,16)      -8.5176793                     1_GWF-(6,5,27)
          8          2          1     -0.10016618                    1_GWF-(4,11,10)       31.560222                   1_GWF-(10,23,14)
          9          2          2 -1.23109521E-02                   1_GWF-(13,13,10)       16.974442                    1_GWF-(11,14,9)
         10          2          3 -1.07538623E-02                   1_GWF-(11,14,10)       8.8900979                     1_GWF-(6,6,27)
         11          2          4 -4.19872866E-03                    1_GWF-(12,15,9)       5.2952745                    1_GWF-(11,18,9)
         12          3          1 -1.74415476E-02                    1_GWF-(4,22,13)       20.220027                   1_GWF-(10,23,14)
         13          3          2 -5.05305497E-03                   1_GWF-(11,23,12)       5.2740531                   1_GWF-(11,23,10)
         14          4          1 -1.07063165E-02                    1_GWF-(4,22,13)       11.746136                   1_GWF-(10,23,14)
         15          4          2 -3.82140380E-03                   1_GWF-(11,23,12)       4.6045474                   1_GWF-(11,23,10)
         16          5          1 -9.96599757E-03                    1_GWF-(4,22,13)       8.3960394                   1_GWF-(11,21,12)
         17          6          1 -4.39318365E-03                    1_GWF-(4,22,13)       4.8934888                   1_GWF-(11,23,12)
[...]
      TOTAL      OUTER      INNER                                                            MAXIMUM                                   
  ITERATION  ITERATION  ITERATION  MAXIMUM CHANGE      MAXIMUM CHANGE MODEL-(CELLID)        RESIDUAL    MAXIMUM RESIDUAL MODEL-(CELLID)
 --------------------------------------------------------------------------------------------------------------------------------------
          1          1          1      0.23287568                   1_GWF-(13,17,18)      -222.98178                    1_GWF-(11,20,7)
          2          1          2      0.11407274                    1_GWF-(12,18,7)       98.407494                     1_GWF-(12,9,6)
          3          1          3  9.57212746E-02                   1_GWF-(13,26,25)      -66.338577                   1_GWF-(10,18,11)
          4          1          4 -4.90293387E-02                   1_GWF-(13,26,25)       9.2405599                   1_GWF-(11,26,10)
          5          1          5 -3.24794879E-03                   1_GWF-(13,17,19)      -4.1612334                    1_GWF-(11,20,7)
          6          2          1  1.47559912E-03                     1_GWF-(4,5,28)      -2.4930715                    1_GWF-(11,20,7)
          7          3          1  4.91057937E-04                    1_GWF-(11,20,7)      -1.4867456                    1_GWF-(11,20,7)
          8          4          1  3.14941059E-04                    1_GWF-(11,20,7)     -0.89322291                    1_GWF-(11,21,6)
          9          5          1  1.84776002E-04                    1_GWF-(11,20,7)     -0.54269940                    1_GWF-(11,21,6)
 --------------------------------------------------------------------------------------------------------------------------------------


 
    Solving:  Stress period:    19    Time step:     1
 
1
 STRESS PERIOD NO. 19, LENGTH =   183.0000    
 ------------------------------------------
 NUMBER OF TIME STEPS = 5
 MULTIPLIER FOR DELT =     1.500
 #k i j q boundname
 INITIAL TIME STEP SIZE =   13.87678    

 SLN_1 OUTER ITERATION SUMMARY
 ----------------------------------------------------------------------------------------------------------
                                OUTER      INNER                    STEP   MAXIMUM CHANGE MODEL-(CELLID) OR
 OUTER ITERATION STEP       ITERATION  ITERATION  MAXIMUM CHANGE SUCCESS             MODEL-PACKAGE-(NUMBER)
 ----------------------------------------------------------------------------------------------------------
 Model                              1          3     -0.20972994                             1_GWF-(13,8,6)
 Model                              2          1 -3.45638921E-03       *                    1_GWF-(4,26,32)
 Package                            2                  4.2783637                   1_GWF-SFR_0-(232)-inflow
 Model                              3          1 -9.65659090E-04       *                    1_GWF-(4,27,32)
 Package                            3                  1.2197415                   1_GWF-SFR_0-(232)-inflow
 Model                              4          1 -1.81870197E-04       *                    1_GWF-(6,27,32)
 Package                            4                 0.21769866                   1_GWF-SFR_0-(232)-inflow
 Model                              5          1 -2.83004831E-05       *                   1_GWF-(11,27,32)
 Package                            5             3.25979517E-02       *           1_GWF-SFR_0-(232)-inflow
 ----------------------------------------------------------------------------------------------------------


 5 CALLS TO NUMERICAL SOLUTION IN TIME STEP 1 STRESS PERIOD 19
 7 TOTAL ITERATIONS

 SLN_1 INNER ITERATION SUMMARY
 --------------------------------------------------------------------------------------------------------------------------------------
      TOTAL      OUTER      INNER                                                            MAXIMUM                                   
  ITERATION  ITERATION  ITERATION  MAXIMUM CHANGE      MAXIMUM CHANGE MODEL-(CELLID)        RESIDUAL    MAXIMUM RESIDUAL MODEL-(CELLID)
 --------------------------------------------------------------------------------------------------------------------------------------
          1          1          1     -0.20110421                      1_GWF-(7,8,6)       120.20304                    1_GWF-(11,18,8)
          2          1          2 -1.32232751E-02                   1_GWF-(11,23,13)       19.925831                    1_GWF-(11,18,8)
          3          1          3 -2.55258620E-03                    1_GWF-(12,17,7)       1.8776246                    1_GWF-(11,18,8)
          4          2          1 -3.45638921E-03                    1_GWF-(4,26,32)       3.5221609                    1_GWF-(6,26,33)
          5          3          1 -9.65659090E-04                    1_GWF-(4,27,32)      0.93665627                    1_GWF-(6,26,33)
          6          4          1 -1.81870197E-04                    1_GWF-(6,27,32)      0.16640146                    1_GWF-(6,26,33)
          7          5          1 -2.83004831E-05                   1_GWF-(11,27,32)  2.67216241E-02                    1_GWF-(6,26,33)
 --------------------------------------------------------------------------------------------------------------------------------------


 
    Solving:  Stress period:    19    Time step:     2
 

 SLN_1 OUTER ITERATION SUMMARY
 ----------------------------------------------------------------------------------------------------------
                                OUTER      INNER                    STEP   MAXIMUM CHANGE MODEL-(CELLID) OR
 OUTER ITERATION STEP       ITERATION  ITERATION  MAXIMUM CHANGE SUCCESS             MODEL-PACKAGE-(NUMBER)
 ----------------------------------------------------------------------------------------------------------
 Model                              1          3     -0.20596052                              1_GWF-(4,8,6)
 Model                              2          1 -2.33316988E-03       *                    1_GWF-(4,26,32)
 Package                            2                  4.0106777                   1_GWF-SFR_0-(232)-inflow
 Model                              3          1 -7.30039669E-04       *                    1_GWF-(4,27,32)
 Package                            3                  1.2066163                   1_GWF-SFR_0-(232)-inflow
 Model                              4          1 -1.59230350E-04       *                   1_GWF-(11,27,32)
 Package                            4                 0.24813948                   1_GWF-SFR_0-(232)-inflow
 Model                              5          1 -3.94562159E-05       *                   1_GWF-(13,24,33)
 Package                            5             4.50179347E-02       *           1_GWF-SFR_0-(232)-inflow
 ----------------------------------------------------------------------------------------------------------


 5 CALLS TO NUMERICAL SOLUTION IN TIME STEP 2 STRESS PERIOD 19
 7 TOTAL ITERATIONS

 SLN_1 INNER ITERATION SUMMARY
 --------------------------------------------------------------------------------------------------------------------------------------
      TOTAL      OUTER      INNER                                                            MAXIMUM                                   
  ITERATION  ITERATION  ITERATION  MAXIMUM CHANGE      MAXIMUM CHANGE MODEL-(CELLID)        RESIDUAL    MAXIMUM RESIDUAL MODEL-(CELLID)
 --------------------------------------------------------------------------------------------------------------------------------------
          1          1          1     -0.19049438                      1_GWF-(4,8,6)       159.09667                     1_GWF-(12,8,6)
          2          1          2 -2.09390744E-02                    1_GWF-(12,17,7)       24.130192                     1_GWF-(10,9,6)
          3          1          3 -2.37384262E-03                    1_GWF-(12,16,6)       3.2944445                    1_GWF-(11,19,7)
          4          2          1 -2.33316988E-03                    1_GWF-(4,26,32)       2.9186975                    1_GWF-(6,26,33)
          5          3          1 -7.30039669E-04                    1_GWF-(4,27,32)      0.88515488                    1_GWF-(6,26,33)
          6          4          1 -1.59230350E-04                   1_GWF-(11,27,32)      0.19363610                    1_GWF-(6,25,31)
          7          5          1 -3.94562159E-05                   1_GWF-(13,24,33)  5.64693576E-02                    1_GWF-(11,20,7)
 --------------------------------------------------------------------------------------------------------------------------------------


 
    Solving:  Stress period:    19    Time step:     3
 

 SLN_1 OUTER ITERATION SUMMARY
 ----------------------------------------------------------------------------------------------------------
                                OUTER      INNER                    STEP   MAXIMUM CHANGE MODEL-(CELLID) OR
 OUTER ITERATION STEP       ITERATION  ITERATION  MAXIMUM CHANGE SUCCESS             MODEL-PACKAGE-(NUMBER)
 ----------------------------------------------------------------------------------------------------------
 Model                              1          3     -0.19536049                              1_GWF-(4,8,6)
 Model                              2          1 -1.66628320E-03       *                    1_GWF-(4,26,32)
 Package                            2                  3.8970121                   1_GWF-SFR_0-(232)-inflow
 Model                              3          1 -5.61143336E-04       *                    1_GWF-(4,27,32)
 Package                            3                  1.3008117                   1_GWF-SFR_0-(232)-inflow
 Model                              4          1 -1.50338427E-04       *                    1_GWF-(12,20,8)
 Package                            4                 0.28375187                   1_GWF-SFR_0-(232)-inflow
 Model                              5          1 -6.72947228E-05       *                    1_GWF-(12,20,8)
 Package                            5             5.46041695E-02       *           1_GWF-SFR_0-(232)-inflow
 ----------------------------------------------------------------------------------------------------------


 5 CALLS TO NUMERICAL SOLUTION IN TIME STEP 3 STRESS PERIOD 19
 7 TOTAL ITERATIONS

 SLN_1 INNER ITERATION SUMMARY
 --------------------------------------------------------------------------------------------------------------------------------------
      TOTAL      OUTER      INNER                                                            MAXIMUM                                   
  ITERATION  ITERATION  ITERATION  MAXIMUM CHANGE      MAXIMUM CHANGE MODEL-(CELLID)        RESIDUAL    MAXIMUM RESIDUAL MODEL-(CELLID)
 --------------------------------------------------------------------------------------------------------------------------------------
          1          1          1     -0.17407647                      1_GWF-(4,8,6)      -236.70510                     1_GWF-(10,9,6)
          2          1          2 -3.16006170E-02                    1_GWF-(11,25,7)      -49.479032                     1_GWF-(12,9,6)
          3          1          3 -3.39747585E-03                   1_GWF-(13,25,27)       5.2175187                    1_GWF-(11,20,7)
          4          2          1 -1.66628320E-03                    1_GWF-(4,26,32)       3.2055659                   1_GWF-(11,27,34)
          5          3          1 -5.61143336E-04                    1_GWF-(4,27,32)      0.99162486                   1_GWF-(11,27,34)
          6          4          1 -1.50338427E-04                    1_GWF-(12,20,8)      0.42820446                    1_GWF-(11,18,8)
          7          5          1 -6.72947228E-05                    1_GWF-(12,20,8)      0.18119569                    1_GWF-(11,18,8)
 --------------------------------------------------------------------------------------------------------------------------------------


 
    Solving:  Stress period:    19    Time step:     4
 

 SLN_1 OUTER ITERATION SUMMARY
 ----------------------------------------------------------------------------------------------------------
                                OUTER      INNER                    STEP   MAXIMUM CHANGE MODEL-(CELLID) OR
 OUTER ITERATION STEP       ITERATION  ITERATION  MAXIMUM CHANGE SUCCESS             MODEL-PACKAGE-(NUMBER)
 ----------------------------------------------------------------------------------------------------------
 Model                              1          4     -0.18844171                              1_GWF-(4,8,6)
 Model                              2          1 -1.06333557E-03       *                    1_GWF-(4,26,32)
 Package                            2                  3.5904057                   1_GWF-SFR_0-(232)-inflow
 Model                              3          1 -4.06284524E-04       *                    1_GWF-(4,27,32)
 Package                            3                  1.2808780                   1_GWF-SFR_0-(232)-inflow
 Model                              4          1 -1.42991538E-04       *                    1_GWF-(12,20,7)
 Package                            4                 0.33285460                   1_GWF-SFR_0-(232)-inflow
 Model                              5          1 -8.49232793E-05       *                    1_GWF-(12,20,7)
 Package                            5             7.84152007E-02       *           1_GWF-SFR_0-(232)-inflow
 ----------------------------------------------------------------------------------------------------------


 5 CALLS TO NUMERICAL SOLUTION IN TIME STEP 4 STRESS PERIOD 19
 8 TOTAL ITERATIONS

 SLN_1 INNER ITERATION SUMMARY
 --------------------------------------------------------------------------------------------------------------------------------------
      TOTAL      OUTER      INNER                                                            MAXIMUM                                   
  ITERATION  ITERATION  ITERATION  MAXIMUM CHANGE      MAXIMUM CHANGE MODEL-(CELLID)        RESIDUAL    MAXIMUM RESIDUAL MODEL-(CELLID)
 --------------------------------------------------------------------------------------------------------------------------------------
          1          1          1     -0.15874621                      1_GWF-(4,8,6)      -230.32242                     1_GWF-(10,9,6)
          2          1          2 -4.88384527E-02                    1_GWF-(11,25,7)      -90.410557                     1_GWF-(12,9,6)
          3          1          3 -1.38241527E-02                   1_GWF-(13,25,26)      -14.147918                     1_GWF-(10,9,6)
          4          1          4 -2.65055531E-03                    1_GWF-(11,22,8)      -2.8072986                     1_GWF-(12,9,6)
          5          2          1 -1.06333557E-03                    1_GWF-(4,26,32)       1.7685638                    1_GWF-(6,26,33)
          6          3          1 -4.06284524E-04                    1_GWF-(4,27,32)      0.75736545                    1_GWF-(11,20,8)
          7          4          1 -1.42991538E-04                    1_GWF-(12,20,7)      0.41839360                    1_GWF-(11,20,7)
          8          5          1 -8.49232793E-05                    1_GWF-(12,20,7)      0.22185761                    1_GWF-(11,20,7)
 --------------------------------------------------------------------------------------------------------------------------------------


 
    Solving:  Stress period:    19    Time step:     5
 

 SLN_1 OUTER ITERATION SUMMARY
 ----------------------------------------------------------------------------------------------------------
                                OUTER      INNER                    STEP   MAXIMUM CHANGE MODEL-(CELLID) OR
 OUTER ITERATION STEP       ITERATION  ITERATION  MAXIMUM CHANGE SUCCESS             MODEL-PACKAGE-(NUMBER)
 ----------------------------------------------------------------------------------------------------------
 Model                              1          5     -0.22898852                             1_GWF-(1,26,5)
 Model                              2          1 -1.75552271E-03       *                     1_GWF-(4,7,28)
 Package                            2                  2.9410292                   1_GWF-SFR_0-(232)-inflow
 Model                              3          1 -4.69091809E-04       *                    1_GWF-(12,20,6)
 Package                            3                  1.0929116                   1_GWF-SFR_0-(232)-inflow
 Model                              4          1 -3.10570750E-04       *                    1_GWF-(12,20,6)
 Package                            4                 0.33147472                   1_GWF-SFR_0-(232)-inflow
 Model                              5          1 -2.50374151E-04       *                    1_GWF-(12,20,6)
 Package                            5             9.82225307E-02       *           1_GWF-SFR_0-(232)-inflow
 ----------------------------------------------------------------------------------------------------------


 5 CALLS TO NUMERICAL SOLUTION IN TIME STEP 5 STRESS PERIOD 19
 9 TOTAL ITERATIONS

 SLN_1 INNER ITERATION SUMMARY
 --------------------------------------------------------------------------------------------------------------------------------------
      TOTAL      OUTER      INNER                                                            MAXIMUM                                   
  ITERATION  ITERATION  ITERATION  MAXIMUM CHANGE      MAXIMUM CHANGE MODEL-(CELLID)        RESIDUAL    MAXIMUM RESIDUAL MODEL-(CELLID)
 --------------------------------------------------------------------------------------------------------------------------------------
          1          1          1     -0.16963637                   1_GWF-(13,15,20)      -185.24351                     1_GWF-(10,9,6)
          2          1          2 -8.29854574E-02                    1_GWF-(11,25,7)      -131.65244                     1_GWF-(12,9,6)
          3          1          3 -4.20097095E-02                   1_GWF-(13,26,26)      -54.818763                     1_GWF-(10,9,6)
          4          1          4  1.21344218E-02                   1_GWF-(13,26,26)      -8.8630737                     1_GWF-(12,9,6)
          5          1          5  1.43103808E-03                   1_GWF-(13,18,19)       3.6659231                    1_GWF-(11,20,7)
          6          2          1 -1.75552271E-03                     1_GWF-(4,7,28)       2.8446935                     1_GWF-(6,7,28)
          7          3          1 -4.69091809E-04                    1_GWF-(12,20,6)       1.4642892                    1_GWF-(11,20,7)
          8          4          1 -3.10570750E-04                    1_GWF-(12,20,6)      0.88994522                    1_GWF-(11,20,7)
          9          5          1 -2.50374151E-04                    1_GWF-(12,20,6)      0.43991658                    1_GWF-(11,20,7)
 --------------------------------------------------------------------------------------------------------------------------------------



 MEMORY MANAGER TOTAL STORAGE BY DATA TYPE, IN MEGABYTES
 -------------------------------
                    ALLOCATED   
 DATA TYPE           MEMORY     
 -------------------------------
 Character        1.68430000E-02
 Logical          4.80000000E-05
 Integer          3.1222200     
 Real             5.6876240     
 -------------------------------
 Total            8.8267350     
 Virtual          0.0000000     
 -------------------------------


 
 Run end date and time (yyyy/mm/dd hh:mm:ss): 2025/11/19 17:46:58
 Elapsed run time:  5.581 Seconds

WARNING REPORT:

  1. OPTIONS BLOCK VARIABLE 'UNIT_CONVERSION' IN FILE 'sm_tmr.sfr' WAS
     DEPRECATED IN VERSION 6.4.2. SETTING UNIT_CONVERSION DIRECTLY.
  2. SFR Package SFR_0 has 1 reach(es) with zero connections.
 Normal termination of simulation.
