                                   MODFLOW 6
                U.S. GEOLOGICAL SURVEY MODULAR HYDROLOGIC MODEL
                            VERSION 6.6.1 02/10/2025

   MODFLOW 6 compiled Feb 14 2025 13:40:10 with Intel(R) Fortran Intel(R) 64
   Compiler Classic for applications running on Intel(R) 64, Version 2021.7.0
                             Build 20220726_000000

This software has been approved for release by the U.S. Geological 
Survey (USGS). Although the software has been subjected to rigorous 
review, the USGS reserves the right to update the software as needed 
pursuant to further analysis and review. No warranty, expressed or 
implied, is made by the USGS or the U.S. Government as to the 
functionality of the software and related material nor shall the 
fact of release constitute any such warranty. Furthermore, the 
software is released on condition that neither the USGS nor the U.S. 
Government shall be held liable for any damages resulting from its 
authorized or unauthorized use. Also refer to the USGS Water 
Resources Software User Rights Notice for complete use, copyright, 
and distribution information.


As a work of the United States Government, this USGS product is 
in the public domain within the United States. You can copy, 
modify, distribute, and perform the work, even for commercial 
purposes, all without asking permission. Additionally, USGS 
waives copyright and related rights in the work worldwide 
through CC0 1.0 Universal Public Domain Dedication 
(https://creativecommons.org/publicdomain/zero/1.0/).

The following GNU Lesser General Public License (LGPL) libraries
are used in this USGS product:

    SPARSKIT version 2.0
      ilut, luson, and qsplit 
      (https://www-users.cse.umn.edu/~saad/software/SPARSKIT/)

    RCM - Reverse Cuthill McKee Ordering
      (https://people.math.sc.edu/Burkardt/f_src/rcm/rcm.html)

    BLAS - Basic Linear Algebra Subprograms Level 1
      (https://people.math.sc.edu/Burkardt/f_src/blas1_d/blas1_d.html)

    SPARSEKIT - Sparse Matrix Utility Package
      amux, dperm, dvperm, rperm, and cperm
      (https://people.sc.fsu.edu/~jburkardt/f77_src/sparsekit/sparsekit.html)

The following BSD-3 License libraries are used in this USGS product:

    Modern Fortran DAG Library
      Copyright (c) 2018, Jacob Williams
      All rights reserved.
      (https://github.com/jacobwilliams/daglib)

MODFLOW 6 compiler options: /O2 /heap-arrays:0 /fpe:0 /traceback /nologo /fpp
/c /module:win64\mod_mf6\ /object:win64\obj_mf6\

System command used to initiate simulation:
C:\Users\gross.DESKTOP-AIRQM2M\anaconda3\Scripts\mf6.exe

MODFLOW was compiled using uniform precision.

Real Variables
  KIND: 8
  TINY (smallest non-zero value):    2.225074-308
  HUGE (largest value):    1.797693+308
  PRECISION: 15
  SIZE IN BITS: 64

Integer Variables
  KIND: 4
  HUGE (largest value): 2147483647
  SIZE IN BITS: 32

Long Integer Variables
  KIND: 8
  HUGE (largest value): 9223372036854775807
  SIZE IN BITS: 64

Logical Variables
  KIND: 4
  SIZE IN BITS: 32
 

 OPENED mfsim.nam
 FILE TYPE:NAM6               UNIT 1001   STATUS:OLD                 
 FORMAT:FORMATTED              ACCESS:SEQUENTIAL          
 ACTION:READ                

 # File generated by Flopy version 3.10.0.dev1 on 11/18/2025 at 19:24:18.

 OPENED 0101_0102_0103_0105_MF6_SS_Unconfined_250.tdis
 FILE TYPE:TDIS6              UNIT 1002   STATUS:OLD                 
 FORMAT:FORMATTED              ACCESS:SEQUENTIAL          
 ACTION:READ                

 # File generated by Flopy version 3.10.0.dev1 on 11/18/2025 at 19:24:18.

 OPENED 0101_0102_0103_0105_MF6_SS_Unconfined_250.nam
 FILE TYPE:GWF6               UNIT 1003   STATUS:OLD                 
 FORMAT:FORMATTED              ACCESS:SEQUENTIAL          
 ACTION:READ                

 # File generated by Flopy version 3.10.0.dev1 on 11/18/2025 at 19:24:18.

 OPENED 0101_0102_0103_0105_MF6_SS_Unconfined_250.dis
 FILE TYPE:DIS6               UNIT 1004   STATUS:OLD                 
 FORMAT:FORMATTED              ACCESS:SEQUENTIAL          
 ACTION:READ                

 # File generated by Flopy version 3.10.0.dev1 on 11/18/2025 at 19:24:18.

 OPENED 0101_0102_0103_0105_MF6_SS_Unconfined_250.npf
 FILE TYPE:NPF6               UNIT 1005   STATUS:OLD                 
 FORMAT:FORMATTED              ACCESS:SEQUENTIAL          
 ACTION:READ                

 # File generated by Flopy version 3.10.0.dev1 on 11/18/2025 at 19:25:13.

 OPENED 0101_0102_0103_0105_MF6_SS_Unconfined_250.ic
 FILE TYPE:IC6                UNIT 1006   STATUS:OLD                 
 FORMAT:FORMATTED              ACCESS:SEQUENTIAL          
 ACTION:READ                

 # File generated by Flopy version 3.10.0.dev1 on 11/18/2025 at 19:25:03.

 OPENED 0101_0102_0103_0105_MF6_SS_Unconfined_250.oc
 FILE TYPE:OC6       UNIT 1007   STATUS:OLD                 
 FORMAT:FORMATTED              ACCESS:SEQUENTIAL          
 ACTION:READ                


 OPENED 0101_0102_0103_0105_MF6_SS_Unconfined_250.drn
 FILE TYPE:DRN6               UNIT 1008   STATUS:OLD                 
 FORMAT:FORMATTED              ACCESS:SEQUENTIAL          
 ACTION:READ                

 # File generated by Flopy version 3.10.0.dev1 on 11/18/2025 at 19:24:55.

 OPENED 0101_0102_0103_0105_MF6_SS_Unconfined_250.ghb.ghb-nlcd
 FILE TYPE:GHB6               UNIT 1009   STATUS:OLD                 
 FORMAT:FORMATTED              ACCESS:SEQUENTIAL          
 ACTION:READ                

 # File generated by Flopy version 3.10.0.dev1 on 11/18/2025 at 19:24:46.

 OPENED 0101_0102_0103_0105_MF6_SS_Unconfined_250.rch
 FILE TYPE:RCH6               UNIT 1011   STATUS:OLD                 
 FORMAT:FORMATTED              ACCESS:SEQUENTIAL          
 ACTION:READ                

 # File generated by Flopy version 3.10.0.dev1 on 11/18/2025 at 19:25:23.

 OPENED 0101_0102_0103_0105_MF6_SS_Unconfined_250.chd
 FILE TYPE:CHD6               UNIT 1012   STATUS:OLD                 
 FORMAT:FORMATTED              ACCESS:SEQUENTIAL          
 ACTION:READ                

 # File generated by Flopy version 3.10.0.dev1 on 11/18/2025 at 19:24:45.

 READING SIMULATION OPTIONS
    MAXIMUM NUMBER OF ERRORS THAT WILL BE STORED IS 1000
 END OF SIMULATION OPTIONS

 READING SIMULATION TIMING

 TDIS -- TEMPORAL DISCRETIZATION PACKAGE,
 VERSION 1 : 11/13/2014 - INPUT READ FROM MEMPATH: __INPUT__/SIM/TDIS                                
 PROCESSING TDIS OPTIONS
    SIMULATION TIME UNIT IS DAYS
 END OF TDIS OPTIONS
 PROCESSING TDIS DIMENSIONS
    1 STRESS PERIOD(S) IN SIMULATION
 END OF TDIS DIMENSIONS
 PROCESSING TDIS PERIODDATA


 STRESS PERIOD     LENGTH       TIME STEPS     MULTIPLIER FOR DELT
 ----------------------------------------------------------------------------
        1         1.000000          1                    1.000
 END OF TDIS PERIODDATA
 END OF SIMULATION TIMING

 READING SIMULATION MODELS
    GWF6 model 1 will be created
 END OF SIMULATION MODELS

 READING SIMULATION EXCHANGES
 END OF SIMULATION EXCHANGES

 READING SOLUTIONGROUP

 Creating solution: SLN_1           

 OPENED 0101_0102_0103_0105_MF6_SS_Unconfined_250.ims
 FILE TYPE:IMS   UNIT 1014   STATUS:OLD                 
 FORMAT:FORMATTED              ACCESS:SEQUENTIAL          
 ACTION:READ                

 END OF SOLUTIONGROUP

PROCESSING MODEL CONNECTIONS

 IMS -- ITERATIVE MODEL SOLUTION PACKAGE, VERSION 6, 4/28/2017
         INPUT READ FROM UNIT 1014
 # File generated by Flopy version 3.10.0.dev1 on 11/18/2025 at 19:24:18.

 PROCESSING IMS OPTIONS
 COMPLEX OPTION:
 DEFAULT SOLVER INPUT VALUES REFLECT STRONGLY NONLINEAR MODEL
 END OF IMS OPTIONS

 PROCESSING IMS NONLINEAR
 END OF IMS NONLINEAR DATA
 **UNDER-RELAXATION WILL BE USED***
 

 PROCESSING LINEAR DATA
 END OF LINEAR DATA
 ***IMS LINEAR SOLVER WILL BE USED***

 IMSLINEAR -- UNSTRUCTURED LINEAR SOLUTION PACKAGE, VERSION 8, 04/28/2017
 An asymmetric matrix will be solved

 OUTER ITERATION CONVERGENCE CRITERION    (DVCLOSE) =    0.100000E+00
 MAXIMUM NUMBER OF OUTER ITERATIONS        (MXITER) = 1500
 SOLVER PRINTOUT INDEX                     (IPRIMS) = 1
 NONLINEAR ITERATION METHOD            (NONLINMETH) = 3
 LINEAR SOLUTION METHOD                   (LINMETH) = 1
 UNDER-RELAXATION WEIGHT REDUCTION FACTOR   (THETA) =    0.800000E+00
 UNDER-RELAXATION WEIGHT INCREASE INCREMENT (KAPPA) =    0.100000E-03
 UNDER-RELAXATION PREVIOUS HISTORY FACTOR   (GAMMA) =    0.000000E+00
 UNDER-RELAXATION MOMENTUM TERM         (AMOMENTUM) =    0.000000E+00
 MAXIMUM NUMBER OF BACKTRACKS            (NUMTRACK) = 20
 BACKTRACKING TOLERANCE FACTOR               (BTOL) =    0.105000E+01
 BACKTRACKING REDUCTION FACTOR             (BREDUC) =    0.100000E+00
 BACKTRACKING RESIDUAL LIMIT              (RES_LIM) =    0.200000E-02

       SOLUTION BY THE BICONJUGATE-GRADIENT STABILIZED METHOD
 ------------------------------------------------------------------
 MAXIMUM OF 1500 CALLS OF SOLUTION ROUTINE
 MAXIMUM OF 200 INTERNAL ITERATIONS PER CALL TO SOLUTION ROUTINE
 LINEAR ACCELERATION METHOD            = BCGS      
 MATRIX PRECONDITIONING TYPE           = INCOMPLETE LUT      
 MATRIX SCALING APPROACH               = NO SCALING          
 MATRIX REORDERING APPROACH            = ORIGINAL ORDERING        
 NUMBER OF ORTHOGONALIZATIONS          = 2
 HEAD CHANGE CRITERION FOR CLOSURE     =    0.10000E+00
 RESIDUAL CHANGE CRITERION FOR CLOSURE =    0.10000E+00
 RESIDUAL CONVERGENCE OPTION           = 0
 RESIDUAL CONVERGENCE NORM             = INFINITY NORM   
 RELAXATION FACTOR                     =    0.00000E+00
 NUMBER OF LEVELS                      =              5
 DROP TOLERANCE                        =    0.10000E-03


 
    Solving:  Stress period:     1    Time step:     1
 
1
 STRESS PERIOD NO. 1, LENGTH =   1.000000    
 ------------------------------------------
 NUMBER OF TIME STEPS = 1
 MULTIPLIER FOR DELT =     1.000
 INITIAL TIME STEP SIZE =   1.000000    



 PSEUDO-TRANSIENT CONTINUATION WILL BE APPLIED TO MODEL 1 ("GWF0") DURING THIS TIME STEP

 SLN_1 OUTER ITERATION SUMMARY
 ----------------------------------------------------------------------------------------------------------------------------------------------------------------
                                OUTER      INNER  BACKTRACK  BACKTRACK        INCOMING        OUTGOING                    STEP   MAXIMUM CHANGE MODEL-(CELLID) OR
 OUTER ITERATION STEP       ITERATION  ITERATION       FLAG ITERATIONS        RESIDUAL        RESIDUAL  MAXIMUM CHANGE SUCCESS             MODEL-PACKAGE-(NUMBER)
 ----------------------------------------------------------------------------------------------------------------------------------------------------------------
 Backtracking                       1                     0          0       14300830.       14300830.                       *                                   
 Model                              1         11                                                             135.40820                         1_GWF-(1,1238,336)
 Backtracking                       2                     1          1       48396765.       12895889.                                                           
 Model                              2         11                                                             89.772329                         1_GWF-(1,1254,427)
 Backtracking                       3                     1          1       28261530.       11619779.                                                           
 Model                              3          9                                                             58.988490                         1_GWF-(1,1125,479)
 Backtracking                       4                     1          1       18495277.       10466518.                                                           
 Model                              4          8                                                             54.892587                         1_GWF-(1,1375,444)
 Backtracking                       5                     1          1       13443007.       9426846.9                                                           
 Model                              5          8                                                             46.799339                         1_GWF-(1,1375,443)
 Backtracking                       6                     0          0       8816609.5       8816609.5                       *                                   
 Model                              6          6                                                            -37.941767                         1_GWF-(1,1234,386)
 Backtracking                       7                     0          0       1770657.7       1770657.7                       *                                   
 Model                              7          6                                                             67.395587                          1_GWF-(1,778,227)
 Backtracking                       8                     1          1       3514078.8       1663179.2                                                           
 Model                              8          6                                                            -11.452084                         1_GWF-(1,1242,395)
 Backtracking                       9                     0          0       353494.23       353494.23                       *                                   
 Model                              9          5                                                            -11.676508                         1_GWF-(1,1121,478)
 Backtracking                      10                     0          0       94393.875       94393.875                       *                                   
 Model                             10          6                                                            -11.032878                         1_GWF-(1,1366,449)
 Backtracking                      11                     0          0       32823.501       32823.501                       *                                   
 Model                             11          5                                                            -9.8260132                         1_GWF-(1,1239,385)
 Backtracking                      12                     0          0       12588.031       12588.031                       *                                   
 Model                             12          5                                                            -5.8882030                         1_GWF-(1,1366,452)
 Backtracking                      13                     0          0       4963.4818       4963.4818                       *                                   
 Model                             13          4                                                            -3.5859597                         1_GWF-(1,1372,441)
 Backtracking                      14                     0          0       2117.7753       2117.7753                       *                                   
 Model                             14          3                                                            -1.3805433                         1_GWF-(1,1377,449)
 Backtracking                      15                     0          0       996.80878       996.80878                       *                                   
 Model                             15          3                                                           -0.70163437                         1_GWF-(1,1245,386)
 Backtracking                      16                     0          0       489.29785       489.29785                       *                                   
 Model                             16          2                                                           -0.34561892                         1_GWF-(1,1245,386)
 Backtracking                      17                     0          0       244.00534       244.00534                       *                                   
 Model                             17          2                                                           -0.17089070                         1_GWF-(1,1245,386)
 Backtracking                      18                     0          0       123.09537       123.09537                       *                                   
 Model                             18          2                                                           -0.10827344                         1_GWF-(1,1498,454)
 Backtracking                      19                     0          0       63.343576       63.343576                       *                                   
 Model                             19          1                                                       -7.27669808E-02       *                 1_GWF-(1,1498,454)
 ----------------------------------------------------------------------------------------------------------------------------------------------------------------


 19 CALLS TO NUMERICAL SOLUTION IN TIME STEP 1 STRESS PERIOD 1
 103 TOTAL ITERATIONS

 MEMORY MANAGER TOTAL STORAGE BY DATA TYPE, IN GIGABYTES
 -------------------------------
                    ALLOCATED   
 DATA TYPE           MEMORY     
 -------------------------------
 Character        1.07910000E-05
 Logical          4.80000000E-08
 Integer          0.39209883    
 Real             0.79714202    
 -------------------------------
 Total            1.1892517     
 Virtual          0.0000000     
 -------------------------------


 
 Run end date and time (yyyy/mm/dd hh:mm:ss): 2025/11/18 19:26:19
 Elapsed run time: 46.006 Seconds
 Normal termination of simulation.
