                                   MODFLOW 6
                U.S. GEOLOGICAL SURVEY MODULAR HYDROLOGIC MODEL
                            VERSION 6.5.0 05/23/2024

   MODFLOW 6 compiled Jun 21 2024 02:57:23 with Intel(R) Fortran Intel(R) 64
   Compiler Classic for applications running on Intel(R) 64, Version 2021.7.0
                             Build 20220726_000000

This software has been approved for release by the U.S. Geological 
Survey (USGS). Although the software has been subjected to rigorous 
review, the USGS reserves the right to update the software as needed 
pursuant to further analysis and review. No warranty, expressed or 
implied, is made by the USGS or the U.S. Government as to the 
functionality of the software and related material nor shall the 
fact of release constitute any such warranty. Furthermore, the 
software is released on condition that neither the USGS nor the U.S. 
Government shall be held liable for any damages resulting from its 
authorized or unauthorized use. Also refer to the USGS Water 
Resources Software User Rights Notice for complete use, copyright, 
and distribution information.


As a work of the United States Government, this USGS product is 
in the public domain within the United States. You can copy, 
modify, distribute, and perform the work, even for commercial 
purposes, all without asking permission. Additionally, USGS 
waives copyright and related rights in the work worldwide 
through CC0 1.0 Universal Public Domain Dedication 
(https://creativecommons.org/publicdomain/zero/1.0/).

The following GNU Lesser General Public License (LGPL) libraries
are used in this USGS product:

    SPARSKIT version 2.0
      ilut, luson, and qsplit 
      (https://www-users.cse.umn.edu/~saad/software/SPARSKIT/)

    RCM - Reverse Cuthill McKee Ordering
      (https://people.math.sc.edu/Burkardt/f_src/rcm/rcm.html)

    BLAS - Basic Linear Algebra Subprograms Level 1
      (https://people.math.sc.edu/Burkardt/f_src/blas1_d/blas1_d.html)

    SPARSEKIT - Sparse Matrix Utility Package
      amux, dperm, dvperm, rperm, and cperm
      (https://people.sc.fsu.edu/~jburkardt/f77_src/sparsekit/sparsekit.html)

The following BSD-3 License libraries are used in this USGS product:

    Modern Fortran DAG Library
      Copyright (c) 2018, Jacob Williams
      All rights reserved.
      (https://github.com/jacobwilliams/daglib)

MODFLOW 6 compiler options: /O2 /heap-arrays:0 /fpe:0 /traceback /nologo /fpp
/c /module:win64\mod_mf6\ /object:win64\obj_mf6\

System command used to initiate simulation:
C:\Users\gross.DESKTOP-AIRQM2M\anaconda3\envs\gmdsitut\Scripts\mf6.exe

MODFLOW was compiled using uniform precision.

Real Variables
  KIND: 8
  TINY (smallest non-zero value):    2.225074-308
  HUGE (largest value):    1.797693+308
  PRECISION: 15
  SIZE IN BITS: 64

Integer Variables
  KIND: 4
  HUGE (largest value): 2147483647
  SIZE IN BITS: 32

Long Integer Variables
  KIND: 8
  HUGE (largest value): 9223372036854775807
  SIZE IN BITS: 64

Logical Variables
  KIND: 4
  SIZE IN BITS: 32
 

 OPENED mfsim.nam
 FILE TYPE:NAM6               UNIT 1001   STATUS:OLD                 
 FORMAT:FORMATTED              ACCESS:SEQUENTIAL          
 ACTION:READ                

 # File generated by Flopy version 3.8.2 on 11/13/2025 at 14:58:12.

 OPENED flow.tdis
 FILE TYPE:TDIS6              UNIT 1002   STATUS:OLD                 
 FORMAT:FORMATTED              ACCESS:SEQUENTIAL          
 ACTION:READ                

 # File generated by Flopy version 3.8.2 on 11/13/2025 at 14:58:12.

 OPENED flow.nam
 FILE TYPE:GWF6               UNIT 1003   STATUS:OLD                 
 FORMAT:FORMATTED              ACCESS:SEQUENTIAL          
 ACTION:READ                

 # File generated by Flopy version 3.8.2 on 11/13/2025 at 14:58:12.

 OPENED flow.dis
 FILE TYPE:DIS6               UNIT 1004   STATUS:OLD                 
 FORMAT:FORMATTED              ACCESS:SEQUENTIAL          
 ACTION:READ                

 # File generated by Flopy version 3.8.2 on 11/13/2025 at 14:58:12.

 OPENED flow.npf
 FILE TYPE:NPF6               UNIT 1005   STATUS:OLD                 
 FORMAT:FORMATTED              ACCESS:SEQUENTIAL          
 ACTION:READ                

 # File generated by Flopy version 3.8.2 on 11/13/2025 at 14:58:13.

 OPENED flow.ic
 FILE TYPE:IC6                UNIT 1006   STATUS:OLD                 
 FORMAT:FORMATTED              ACCESS:SEQUENTIAL          
 ACTION:READ                

 # File generated by Flopy version 3.8.2 on 11/13/2025 at 14:58:12.

 OPENED flow.mvr
 FILE TYPE:MVR6      UNIT 1007   STATUS:OLD                 
 FORMAT:FORMATTED              ACCESS:SEQUENTIAL          
 ACTION:READ                


 OPENED flow.oc
 FILE TYPE:OC6       UNIT 1008   STATUS:OLD                 
 FORMAT:FORMATTED              ACCESS:SEQUENTIAL          
 ACTION:READ                


 OPENED flow.rcha
 FILE TYPE:RCH6               UNIT 1010   STATUS:OLD                 
 FORMAT:FORMATTED              ACCESS:SEQUENTIAL          
 ACTION:READ                

 # File generated by Flopy version 3.8.2 on 11/13/2025 at 14:58:13.

 OPENED flow.chd
 FILE TYPE:CHD6               UNIT 1011   STATUS:OLD                 
 FORMAT:FORMATTED              ACCESS:SEQUENTIAL          
 ACTION:READ                

 # File generated by Flopy version 3.8.2 on 11/13/2025 at 14:58:13.

 OPENED flow.sfr
 FILE TYPE:SFR6      UNIT 1012   STATUS:OLD                 
 FORMAT:FORMATTED              ACCESS:SEQUENTIAL          
 ACTION:READ                


 OPENED flow.lak
 FILE TYPE:LAK6      UNIT 1013   STATUS:OLD                 
 FORMAT:FORMATTED              ACCESS:SEQUENTIAL          
 ACTION:READ                


 READING SIMULATION OPTIONS
    MAXIMUM NUMBER OF ERRORS THAT WILL BE STORED IS 1000
 END OF SIMULATION OPTIONS

 READING SIMULATION TIMING

 TDIS -- TEMPORAL DISCRETIZATION PACKAGE,
 VERSION 1 : 11/13/2014 - INPUT READ FROM MEMPATH: __INPUT__/SIM/TDIS                                
 PROCESSING TDIS OPTIONS
    SIMULATION TIME UNIT IS DAYS
 END OF TDIS OPTIONS
 PROCESSING TDIS DIMENSIONS
    1 STRESS PERIOD(S) IN SIMULATION
 END OF TDIS DIMENSIONS
 PROCESSING TDIS PERIODDATA


 STRESS PERIOD     LENGTH       TIME STEPS     MULTIPLIER FOR DELT
 ----------------------------------------------------------------------------
        1         9131.000          1                    1.000
 END OF TDIS PERIODDATA
 END OF SIMULATION TIMING

 READING SIMULATION MODELS
    GWF6 model 1 will be created
 END OF SIMULATION MODELS

 READING SIMULATION EXCHANGES
 END OF SIMULATION EXCHANGES

 READING SOLUTIONGROUP

 Creating solution: SLN_1           

 OPENED flow.ims
 FILE TYPE:IMS   UNIT 1015   STATUS:OLD                 
 FORMAT:FORMATTED              ACCESS:SEQUENTIAL          
 ACTION:READ                

 END OF SOLUTIONGROUP

PROCESSING MODEL CONNECTIONS

 IMS -- ITERATIVE MODEL SOLUTION PACKAGE, VERSION 6, 4/28/2017
         INPUT READ FROM UNIT 1015
 # File generated by Flopy version 3.8.2 on 11/13/2025 at 14:58:12.

 PROCESSING IMS OPTIONS
 END OF IMS OPTIONS

 PROCESSING IMS NONLINEAR
 END OF IMS NONLINEAR DATA
 ***UNDER-RELAXATION WILL NOT BE USED***
 

 PROCESSING LINEAR DATA
 END OF LINEAR DATA
 ***IMS LINEAR SOLVER WILL BE USED***

 IMSLINEAR -- UNSTRUCTURED LINEAR SOLUTION PACKAGE, VERSION 8, 04/28/2017
 A symmetric matrix will be solved

 OUTER ITERATION CONVERGENCE CRITERION    (DVCLOSE) =    0.100000E-01
 MAXIMUM NUMBER OF OUTER ITERATIONS        (MXITER) = 1000
 SOLVER PRINTOUT INDEX                     (IPRIMS) = 1
 NONLINEAR ITERATION METHOD            (NONLINMETH) = 0
 LINEAR SOLUTION METHOD                   (LINMETH) = 1

       SOLUTION BY THE        CONJUGATE-GRADIENT       METHOD
 ------------------------------------------------------------------
 MAXIMUM OF 1000 CALLS OF SOLUTION ROUTINE
 MAXIMUM OF 50 INTERNAL ITERATIONS PER CALL TO SOLUTION ROUTINE
 LINEAR ACCELERATION METHOD            = CG        
 MATRIX PRECONDITIONING TYPE           = MOD. INCOMPLETE LU  
 MATRIX SCALING APPROACH               = NO SCALING          
 MATRIX REORDERING APPROACH            = ORIGINAL ORDERING        
 NUMBER OF ORTHOGONALIZATIONS          = 0
 HEAD CHANGE CRITERION FOR CLOSURE     =    0.10000E-01
 RESIDUAL CHANGE CRITERION FOR CLOSURE =    0.10000E+00
 RESIDUAL CONVERGENCE OPTION           = 0
 RESIDUAL CONVERGENCE NORM             = INFINITY NORM   
 RELAXATION FACTOR                     =    0.99000E+00



 
    Solving:  Stress period:     1    Time step:     1
 
1
 STRESS PERIOD NO. 1, LENGTH =   9131.000    
 ------------------------------------------
 NUMBER OF TIME STEPS = 1
 MULTIPLIER FOR DELT =     1.000
 INITIAL TIME STEP SIZE =   9131.000    

 SLN_1 OUTER ITERATION SUMMARY
 ----------------------------------------------------------------------------------------------------------
                                OUTER      INNER                    STEP   MAXIMUM CHANGE MODEL-(CELLID) OR
 OUTER ITERATION STEP       ITERATION  ITERATION  MAXIMUM CHANGE SUCCESS             MODEL-PACKAGE-(NUMBER)
 ----------------------------------------------------------------------------------------------------------
 Model                              1         33      -21.114589                            1_GWF-(2,35,15)
 Model                              2         29      -3.8087709                            1_GWF-(1,32,15)
 Model                              3         26      -1.2940997                            1_GWF-(1,33,15)
 Model                              4         24     -0.58314513                            1_GWF-(1,33,15)
 Model                              5         24     -0.40180788                            1_GWF-(1,31,15)
 Model                              6         23     -0.31595495                            1_GWF-(1,31,15)
 Model                              7         23     -0.27172302                             1_GWF-(2,23,1)
 Model                              8         23     -0.26582162                             1_GWF-(2,23,1)
 Model                              9         23     -0.25988231                             1_GWF-(2,23,1)
 Model                             10         23     -0.25396059                             1_GWF-(2,23,1)
 Model                             11         23     -0.24809017                             1_GWF-(2,23,1)
 Model                             12         23     -0.24229308                             1_GWF-(2,23,1)
 Model                             13         23     -0.23658415                             1_GWF-(2,23,1)
 Model                             14         23     -0.23097352                             1_GWF-(2,23,1)
 Model                             15         22     -0.22546771                             1_GWF-(2,23,1)
 Model                             16         22     -0.22007221                             1_GWF-(2,23,1)
 Model                             17         22     -0.21478882                             1_GWF-(2,23,1)
 Model                             18         22     -0.20961934                             1_GWF-(2,23,1)
 Model                             19         22     -0.20456432                             1_GWF-(2,23,1)
 Model                             20         22     -0.19962361                             1_GWF-(2,23,1)
 Model                             21         22     -0.19479648                             1_GWF-(2,23,1)
 Model                             22         22     -0.19008182                             1_GWF-(2,23,1)
 Model                             23         22     -0.18547821                             1_GWF-(2,23,1)
 Model                             24         22     -0.18098400                             1_GWF-(2,23,1)
 Model                             25         22     -0.17659736                             1_GWF-(2,23,1)
 Model                             26         22     -0.17231634                             1_GWF-(2,23,1)
 Model                             27         22     -0.16813890                             1_GWF-(2,23,1)
 Model                             28         22     -0.16406294                             1_GWF-(2,23,1)
 Model                             29         21     -0.16008590                             1_GWF-(2,23,1)
 Model                             30         21     -0.15620687                             1_GWF-(2,23,1)
 Model                             31         21     -0.15242244                             1_GWF-(2,23,1)
 Model                             32         21     -0.14873085                             1_GWF-(2,23,1)
 Model                             33         21     -0.14512996                             1_GWF-(2,23,1)
 Model                             34         21     -0.14161762                             1_GWF-(2,23,1)
 Model                             35         21     -0.13819174                             1_GWF-(2,23,1)
 Model                             36         21     -0.13485023                             1_GWF-(2,23,1)
 Model                             37         21     -0.13159105                             1_GWF-(2,23,1)
 Model                             38         21     -0.12841219                             1_GWF-(2,23,1)
 Model                             39         21     -0.12531168                             1_GWF-(2,23,1)
 Model                             40         21     -0.12228758                             1_GWF-(2,23,1)
 Model                             41         21     -0.11933799                             1_GWF-(2,23,1)
 Model                             42         20     -0.11646072                             1_GWF-(2,23,1)
 Model                             43         20     -0.11365499                             1_GWF-(2,23,1)
 Model                             44         20     -0.11091799                             1_GWF-(2,23,1)
 Model                             45         20     -0.10824834                             1_GWF-(2,23,1)
 Model                             46         20     -0.10564434                             1_GWF-(2,23,1)
 Model                             47         20     -0.10310434                             1_GWF-(2,23,1)
 Model                             48         20     -0.10062674                             1_GWF-(2,23,1)
 Model                             49         20 -9.82099558E-02                             1_GWF-(2,23,1)
 Model                             50         20 -9.58524651E-02                             1_GWF-(2,23,1)
 Model                             51         20 -9.35527708E-02                             1_GWF-(2,23,1)
 Model                             52         20 -9.13094163E-02                             1_GWF-(2,23,1)
 Model                             53         20 -8.91209823E-02                             1_GWF-(2,23,1)
 Model                             54         20 -8.69860850E-02                             1_GWF-(2,23,1)
 Model                             55         20 -8.49033764E-02                             1_GWF-(2,23,1)
 Model                             56         20 -8.28715426E-02                             1_GWF-(2,23,1)
 Model                             57         19 -8.08889430E-02                             1_GWF-(2,23,1)
 Model                             58         19 -7.89554185E-02                             1_GWF-(2,23,1)
 Model                             59         19 -7.70686609E-02                             1_GWF-(2,23,1)
 Model                             60         19 -7.52278535E-02                             1_GWF-(2,23,1)
 Model                             61         19 -7.34318432E-02                             1_GWF-(2,23,1)
 Model                             62         19 -7.16795071E-02                             1_GWF-(2,23,1)
 Model                             63         19 -6.99697516E-02                             1_GWF-(2,23,1)
 Model                             64         19 -6.83015112E-02                             1_GWF-(2,23,1)
 Model                             65         19 -6.66737483E-02                             1_GWF-(2,23,1)
 Model                             66         19 -6.50854520E-02                             1_GWF-(2,23,1)
 Model                             67         19 -6.35356378E-02                             1_GWF-(2,23,1)
 Model                             68         19 -6.20233464E-02                             1_GWF-(2,23,1)
 Model                             69         19 -6.05476438E-02                             1_GWF-(2,23,1)
 Model                             70         19 -5.91076200E-02                             1_GWF-(2,23,1)
 Model                             71         19 -5.77023883E-02                             1_GWF-(2,23,1)
 Model                             72         18 -5.63306815E-02                             1_GWF-(2,23,1)
 Model                             73         18 -5.49928743E-02                             1_GWF-(2,23,1)
 Model                             74         18 -5.36869264E-02                             1_GWF-(2,23,1)
 Model                             75         18 -5.24124485E-02                             1_GWF-(2,23,1)
 Model                             76         18 -5.11686618E-02                             1_GWF-(2,23,1)
 Model                             77         18 -4.99548088E-02                             1_GWF-(2,23,1)
 Model                             78         18 -4.87701510E-02                             1_GWF-(2,23,1)
 Model                             79         18 -4.76139690E-02                             1_GWF-(2,23,1)
 Model                             80         18 -4.64855618E-02                             1_GWF-(2,23,1)
 Model                             81         18 -4.53842463E-02                             1_GWF-(2,23,1)
 Model                             82         18 -4.43093569E-02                             1_GWF-(2,23,1)
 Model                             83         18 -4.32602450E-02                             1_GWF-(2,23,1)
 Model                             84         18 -4.22362783E-02                             1_GWF-(2,23,1)
 Model                             85         18 -4.12368409E-02                             1_GWF-(2,23,1)
 Model                             86         18 -4.02613323E-02                             1_GWF-(2,23,1)
 Model                             87         18 -3.93091674E-02                             1_GWF-(2,23,1)
 Model                             88         17 -3.83794151E-02                             1_GWF-(2,23,1)
 Model                             89         17 -3.74726028E-02                             1_GWF-(2,23,1)
 Model                             90         17 -3.65871056E-02                             1_GWF-(2,23,1)
 Model                             91         17 -3.57227554E-02                             1_GWF-(2,23,1)
 Model                             92         17 -3.48790374E-02                             1_GWF-(2,23,1)
 Model                             93         17 -3.40554499E-02                             1_GWF-(2,23,1)
 Model                             94         17 -3.32515036E-02                             1_GWF-(2,23,1)
 Model                             95         17 -3.24667216E-02                             1_GWF-(2,23,1)
 Model                             96         17 -3.17006389E-02                             1_GWF-(2,23,1)
 Model                             97         17 -3.09528021E-02                             1_GWF-(2,23,1)
 Model                             98         16 -3.02225661E-02                             1_GWF-(2,23,1)
 Model                             99         16 -2.95101072E-02                             1_GWF-(2,23,1)
 Model                            100         16 -2.88144001E-02                             1_GWF-(2,23,1)
 Model                            101         15 -2.81352374E-02                             1_GWF-(2,23,1)
 Model                            102         15 -2.74722058E-02                             1_GWF-(2,23,1)
 Model                            103         15 -2.68249349E-02                             1_GWF-(2,23,1)
 Model                            104         15 -2.61930423E-02                             1_GWF-(2,23,1)
 Model                            105         15 -2.55761508E-02                             1_GWF-(2,23,1)
 Model                            106         15 -2.49738999E-02                             1_GWF-(2,23,1)
 Model                            107         15 -2.43859373E-02                             1_GWF-(2,23,1)
 Model                            108         15 -2.38119195E-02                             1_GWF-(2,23,1)
 Model                            109         15 -2.32515111E-02                             1_GWF-(2,23,1)
 Model                            110         15 -2.27043853E-02                             1_GWF-(2,23,1)
 Model                            111         15 -2.21702230E-02                             1_GWF-(2,23,1)
 Model                            112         15 -2.16487131E-02                             1_GWF-(2,23,1)
 Model                            113         15 -2.11395521E-02                             1_GWF-(2,23,1)
 Model                            114         15 -2.06424440E-02                             1_GWF-(2,23,1)
 Model                            115         15 -2.01570999E-02                             1_GWF-(2,23,1)
 Model                            116         15 -1.96832381E-02                             1_GWF-(2,23,1)
 Model                            117         15 -1.92205839E-02                             1_GWF-(2,23,1)
 Model                            118         15 -1.87688690E-02                             1_GWF-(2,23,1)
 Model                            119         15 -1.83278320E-02                             1_GWF-(2,23,1)
 Model                            120         15 -1.78972175E-02                             1_GWF-(2,23,1)
 Model                            121         15 -1.74767768E-02                             1_GWF-(2,23,1)
 Model                            122         15 -1.70662669E-02                             1_GWF-(2,23,1)
 Model                            123         14 -1.66657802E-02                             1_GWF-(2,23,1)
 Model                            124         14 -1.62740409E-02                             1_GWF-(2,23,1)
 Model                            125         14 -1.58919649E-02                             1_GWF-(2,23,1)
 Model                            126         14 -1.55188657E-02                             1_GWF-(2,23,1)
 Model                            127         14 -1.51545707E-02                             1_GWF-(2,23,1)
 Model                            128         14 -1.47988665E-02                             1_GWF-(2,23,1)
 Model                            129         14 -1.44515501E-02                             1_GWF-(2,23,1)
 Model                            130         14 -1.41124217E-02                             1_GWF-(2,23,1)
 Model                            131         14 -1.37812870E-02                             1_GWF-(2,23,1)
 Model                            132         14 -1.34579559E-02                             1_GWF-(2,23,1)
 Model                            133         14 -1.31422430E-02                             1_GWF-(2,23,1)
 Model                            134         14 -1.28339674E-02                             1_GWF-(2,23,1)
 Model                            135         14 -1.25329524E-02                             1_GWF-(2,23,1)
 Model                            136         14 -1.22390259E-02                             1_GWF-(2,23,1)
 Model                            137         14 -1.19520195E-02                             1_GWF-(2,23,1)
 Model                            138         14 -1.16717691E-02                             1_GWF-(2,23,1)
 Model                            139         14 -1.13981146E-02                             1_GWF-(2,23,1)
 Model                            140         14 -1.11308995E-02                             1_GWF-(2,23,1)
 Model                            141         14 -1.08699714E-02                             1_GWF-(2,23,1)
 Model                            142         14 -1.06151812E-02                             1_GWF-(2,23,1)
 Model                            143         14 -1.03663836E-02                             1_GWF-(2,23,1)
 Model                            144         14 -1.01234367E-02                             1_GWF-(2,23,1)
 Model                            145         14 -9.88620219E-03       *                     1_GWF-(2,23,1)
 Package                          145                  284.62618                   1_GWF-SFR-1-(7)-qfrommvr
 Model                            146         14 -9.65454476E-03       *                     1_GWF-(2,23,1)
 Package                          146                  277.96953                   1_GWF-SFR-1-(7)-qfrommvr
 Model                            147         14 -9.42833254E-03       *                     1_GWF-(2,23,1)
 Package                          147                  271.46892                   1_GWF-SFR-1-(7)-qfrommvr
 Model                            148         14 -9.20743677E-03       *                     1_GWF-(2,23,1)
 Package                          148                  265.12068                   1_GWF-SFR-1-(7)-qfrommvr
 Model                            149         14 -8.99173178E-03       *                     1_GWF-(2,23,1)
 Package                          149                  258.92121                   1_GWF-SFR-1-(7)-qfrommvr
 Model                            150         14 -8.78109488E-03       *                     1_GWF-(2,23,1)
 Package                          150                  252.86701                   1_GWF-SFR-1-(7)-qfrommvr
 Model                            151         14 -8.57540633E-03       *                     1_GWF-(2,23,1)
 Package                          151                  246.95466                   1_GWF-SFR-1-(7)-qfrommvr
 Model                            152         14 -8.37454925E-03       *                     1_GWF-(2,23,1)
 Package                          152                  241.18083                   1_GWF-SFR-1-(7)-qfrommvr
 Model                            153         13 -8.17876037E-03       *                     1_GWF-(2,23,1)
 Package                          153                  235.54225                   1_GWF-SFR-1-(7)-qfrommvr
 Model                            154         13 -7.98688275E-03       *                     1_GWF-(2,23,1)
 Package                          154                  230.03575                   1_GWF-SFR-1-(7)-qfrommvr
 Model                            155         13 -7.79982780E-03       *                     1_GWF-(2,23,1)
 Package                          155                  224.37134                   1_GWF-SFR-1-(7)-qfrommvr
 Model                            156         13 -7.61718171E-03       *                     1_GWF-(2,23,1)
 Package                          156                  219.12634                   1_GWF-SFR-1-(7)-qfrommvr
 Model                            157         13 -7.43882555E-03       *                     1_GWF-(2,23,1)
 Package                          157                  214.02915                   1_GWF-SFR-1-(7)-qfrommvr
 Model                            158         13 -7.26465510E-03       *                     1_GWF-(2,23,1)
 Package                          158                  209.05424                   1_GWF-SFR-1-(7)-qfrommvr
 Model                            159         13 -7.09457196E-03       *                     1_GWF-(2,23,1)
 Package                          159                  204.19339                   1_GWF-SFR-1-(7)-qfrommvr
 Model                            160         13 -6.92847994E-03       *                     1_GWF-(2,23,1)
 Package                          160                  199.44359                   1_GWF-SFR-1-(7)-qfrommvr
 Model                            161         13 -6.76628505E-03       *                     1_GWF-(2,23,1)
 Package                          161                  194.80247                   1_GWF-SFR-1-(7)-qfrommvr
 Model                            162         13 -6.60789549E-03       *                     1_GWF-(2,23,1)
 Package                          162                  190.26774                   1_GWF-SFR-1-(7)-qfrommvr
 Model                            163         13 -6.45322163E-03       *                     1_GWF-(2,23,1)
 Package                          163                  185.83716                   1_GWF-SFR-1-(7)-qfrommvr
 Model                            164         13 -6.30217596E-03       *                     1_GWF-(2,23,1)
 Package                          164                  181.50853                   1_GWF-SFR-1-(7)-qfrommvr
 Model                            165         13 -6.15467302E-03       *                     1_GWF-(2,23,1)
 Package                          165                  177.27963                   1_GWF-SFR-1-(7)-qfrommvr
 Model                            166         13 -6.01062940E-03       *                     1_GWF-(2,23,1)
 Package                          166                  173.14830                   1_GWF-SFR-1-(7)-qfrommvr
 Model                            167         13 -5.86996365E-03       *                     1_GWF-(2,23,1)
 Package                          167                  169.11240                   1_GWF-SFR-1-(7)-qfrommvr
 Model                            168         13 -5.73259624E-03       *                     1_GWF-(2,23,1)
 Package                          168                  165.16982                   1_GWF-SFR-1-(7)-qfrommvr
 Model                            169         13 -5.59844956E-03       *                     1_GWF-(2,23,1)
 Package                          169                  161.31849                   1_GWF-SFR-1-(7)-qfrommvr
 Model                            170         13 -5.46744780E-03       *                     1_GWF-(2,23,1)
 Package                          170                  157.55638                   1_GWF-SFR-1-(7)-qfrommvr
 Model                            171         13 -5.33951698E-03       *                     1_GWF-(2,23,1)
 Package                          171                  153.88149                   1_GWF-SFR-1-(7)-qfrommvr
 Model                            172         13 -5.21458485E-03       *                     1_GWF-(2,23,1)
 Package                          172                  150.29185                   1_GWF-SFR-1-(7)-qfrommvr
 Model                            173         13 -5.09258088E-03       *                     1_GWF-(2,23,1)
 Package                          173                  146.78554                   1_GWF-SFR-1-(7)-qfrommvr
 Model                            174         13 -4.97343621E-03       *                     1_GWF-(2,23,1)
 Package                          174                  143.36067                   1_GWF-SFR-1-(7)-qfrommvr
 Model                            175         12 -4.85739717E-03       *                     1_GWF-(2,23,1)
 Package                          175                  140.01540                   1_GWF-SFR-1-(7)-qfrommvr
 Model                            176         12 -4.74342813E-03       *                     1_GWF-(2,23,1)
 Package                          176                  136.74790                   1_GWF-SFR-1-(7)-qfrommvr
 Model                            177         12 -4.63249163E-03       *                     1_GWF-(2,23,1)
 Package                          177                  133.32689                   1_GWF-SFR-1-(7)-qfrommvr
 Model                            178         12 -4.52411809E-03       *                     1_GWF-(2,23,1)
 Package                          178                  130.24697                   1_GWF-SFR-1-(7)-qfrommvr
 Model                            179         12 -4.41830066E-03       *                     1_GWF-(2,23,1)
 Package                          179                  127.22285                   1_GWF-SFR-1-(7)-qfrommvr
 Model                            180         12 -4.31495022E-03       *                     1_GWF-(2,23,1)
 Package                          180                  124.27610                   1_GWF-SFR-1-(7)-qfrommvr
 Model                            181         12 -4.21402759E-03       *                     1_GWF-(2,23,1)
 Package                          181                  121.39037                   1_GWF-SFR-1-(7)-qfrommvr
 Model                            182         12 -4.11546432E-03       *                     1_GWF-(2,23,1)
 Package                          182                  118.57326                   1_GWF-SFR-1-(7)-qfrommvr
 Model                            183         12 -4.01921221E-03       *                     1_GWF-(2,23,1)
 Package                          183                  115.81797                   1_GWF-SFR-1-(7)-qfrommvr
 Model                            184         12 -3.92521254E-03       *                     1_GWF-(2,23,1)
 Package                          184                  113.12670                   1_GWF-SFR-1-(7)-qfrommvr
 Model                            185         12 -3.83341522E-03       *                     1_GWF-(2,23,1)
 Package                          185                  110.49602                   1_GWF-SFR-1-(7)-qfrommvr
 Model                            186         12 -3.74376683E-03       *                     1_GWF-(2,23,1)
 Package                          186                  107.92600                   1_GWF-SFR-1-(7)-qfrommvr
 Model                            187         12 -3.65621798E-03       *                     1_GWF-(2,23,1)
 Package                          187                  105.41455                   1_GWF-SFR-1-(7)-qfrommvr
 Model                            188         12 -3.57071874E-03       *                     1_GWF-(2,23,1)
 Package                          188                  102.96095                   1_GWF-SFR-1-(7)-qfrommvr
 Model                            189         12 -3.48722141E-03       *                     1_GWF-(2,23,1)
 Package                          189                  100.56362                   1_GWF-SFR-1-(7)-qfrommvr
 Model                            190         12 -3.40567876E-03       *                     1_GWF-(2,23,1)
 Package                          190                  98.221555                   1_GWF-SFR-1-(7)-qfrommvr
 Model                            191         12 -3.32604508E-03       *                     1_GWF-(2,23,1)
 Package                          191                  95.933429                   1_GWF-SFR-1-(7)-qfrommvr
 Model                            192         12 -3.24827549E-03       *                     1_GWF-(2,23,1)
 Package                          192                  93.698135                   1_GWF-SFR-1-(7)-qfrommvr
 Model                            193         12 -3.17232630E-03       *                     1_GWF-(2,23,1)
 Package                          193                  91.514461                   1_GWF-SFR-1-(7)-qfrommvr
 Model                            194         12 -3.09815479E-03       *                     1_GWF-(2,23,1)
 Package                          194                  89.381294                   1_GWF-SFR-1-(7)-qfrommvr
 Model                            195         12 -3.02571928E-03       *                     1_GWF-(2,23,1)
 Package                          195                  87.297490                   1_GWF-SFR-1-(7)-qfrommvr
 Model                            196         12 -2.95497904E-03       *                     1_GWF-(2,23,1)
 Package                          196                  85.261957                   1_GWF-SFR-1-(7)-qfrommvr
 Model                            197         12 -2.88589433E-03       *                     1_GWF-(2,23,1)
 Package                          197                  83.273604                   1_GWF-SFR-1-(7)-qfrommvr
 Model                            198         12 -2.81842632E-03       *                     1_GWF-(2,23,1)
 Package                          198                  81.331372                   1_GWF-SFR-1-(7)-qfrommvr
 Model                            199         12 -2.75253710E-03       *                     1_GWF-(2,23,1)
 Package                          199                  79.434218                   1_GWF-SFR-1-(7)-qfrommvr
 Model                            200         12 -2.68818967E-03       *                     1_GWF-(2,23,1)
 Package                          200                  77.581118                   1_GWF-SFR-1-(7)-qfrommvr
 Model                            201         12 -2.62534788E-03       *                     1_GWF-(2,23,1)
 Package                          201                  75.771073                   1_GWF-SFR-1-(7)-qfrommvr
 Model                            202         12 -2.56397644E-03       *                     1_GWF-(2,23,1)
 Package                          202                  74.003102                   1_GWF-SFR-1-(7)-qfrommvr
 Model                            203         12 -2.50404089E-03       *                     1_GWF-(2,23,1)
 Package                          203                  72.276242                   1_GWF-SFR-1-(7)-qfrommvr
 Model                            204         11 -2.44584517E-03       *                     1_GWF-(2,23,1)
 Package                          204                  70.589554                   1_GWF-SFR-1-(7)-qfrommvr
 Model                            205         11 -2.38836039E-03       *                     1_GWF-(2,23,1)
 Package                          205                  68.942117                   1_GWF-SFR-1-(7)-qfrommvr
 Model                            206         11 -2.33249374E-03       *                     1_GWF-(2,23,1)
 Package                          206                  67.082402                   1_GWF-SFR-1-(7)-qfrommvr
 Model                            207         11 -2.27795959E-03       *                     1_GWF-(2,23,1)
 Package                          207                  65.521128                   1_GWF-SFR-1-(7)-qfrommvr
 Model                            208         11 -2.22477613E-03       *                     1_GWF-(2,23,1)
 Package                          208                  64.030302                   1_GWF-SFR-1-(7)-qfrommvr
 Model                            209         11 -2.17274786E-03       *                     1_GWF-(2,23,1)
 Package                          209                  62.581504                   1_GWF-SFR-1-(7)-qfrommvr
 Model                            210         11 -2.12194991E-03       *                     1_GWF-(2,23,1)
 Package                          210                  61.115496                   1_GWF-SFR-1-(7)-qfrommvr
 Model                            211         11 -2.07235105E-03       *                     1_GWF-(2,23,1)
 Package                          211                  59.704525                   1_GWF-SFR-1-(7)-qfrommvr
 Model                            212         11 -2.02393878E-03       *                     1_GWF-(2,23,1)
 Package                          212                  58.335657                   1_GWF-SFR-1-(7)-qfrommvr
 Model                            213         11 -1.97660926E-03       *                     1_GWF-(2,23,1)
 Package                          213                  56.998575                   1_GWF-SFR-1-(7)-qfrommvr
 Model                            214         11 -1.93045513E-03       *                     1_GWF-(2,23,1)
 Package                          214                  55.672485                   1_GWF-SFR-1-(7)-qfrommvr
 Model                            215         11 -1.88531026E-03       *                     1_GWF-(2,23,1)
 Package                          215                  54.396429                   1_GWF-SFR-1-(7)-qfrommvr
 Model                            216         11 -1.84124237E-03       *                     1_GWF-(2,23,1)
 Package                          216                  53.116013                   1_GWF-SFR-1-(7)-qfrommvr
 Model                            217         11 -1.79822392E-03       *                     1_GWF-(2,23,1)
 Package                          217                  51.887400                   1_GWF-SFR-1-(7)-qfrommvr
 Model                            218         11 -1.75617503E-03       *                     1_GWF-(2,23,1)
 Package                          218                  50.691560                   1_GWF-SFR-1-(7)-qfrommvr
 Model                            219         11 -1.71519662E-03       *                     1_GWF-(2,23,1)
 Package                          219                  49.512879                   1_GWF-SFR-1-(7)-qfrommvr
 Model                            220         11 -1.67507649E-03       *                     1_GWF-(2,23,1)
 Package                          220                  48.379353                   1_GWF-SFR-1-(7)-qfrommvr
 Model                            221         11 -1.63592783E-03       *                     1_GWF-(2,23,1)
 Package                          221                  47.222633                   1_GWF-SFR-1-(7)-qfrommvr
 Model                            222         11 -1.59768457E-03       *                     1_GWF-(2,23,1)
 Package                          222                  46.123312                   1_GWF-SFR-1-(7)-qfrommvr
 Model                            223         11 -1.56036401E-03       *                     1_GWF-(2,23,1)
 Package                          223                  45.052461                   1_GWF-SFR-1-(7)-qfrommvr
 Model                            224         11 -1.52388996E-03       *                     1_GWF-(2,23,1)
 Package                          224                  44.016320                   1_GWF-SFR-1-(7)-qfrommvr
 Model                            225         11 -1.48829833E-03       *                     1_GWF-(2,23,1)
 Package                          225                  42.991526                   1_GWF-SFR-1-(7)-qfrommvr
 Model                            226         11 -1.45349481E-03       *                     1_GWF-(2,23,1)
 Package                          226                  41.998650                   1_GWF-SFR-1-(7)-qfrommvr
 Model                            227         11 -1.41958228E-03       *                     1_GWF-(2,23,1)
 Package                          227                  41.013950                   1_GWF-SFR-1-(7)-qfrommvr
 Model                            228         11 -1.38637911E-03       *                     1_GWF-(2,23,1)
 Package                          228                  40.071784                   1_GWF-SFR-1-(7)-qfrommvr
 Model                            229         11 -1.35398382E-03       *                     1_GWF-(2,23,1)
 Package                          229                  39.111164                   1_GWF-SFR-1-(7)-qfrommvr
 Model                            230         11 -1.32233336E-03       *                     1_GWF-(2,23,1)
 Package                          230                  38.199267                   1_GWF-SFR-1-(7)-qfrommvr
 Model                            231         11 -1.29143673E-03       *                     1_GWF-(2,23,1)
 Package                          231                  37.308918                   1_GWF-SFR-1-(7)-qfrommvr
 Model                            232         11 -1.26127758E-03       *                     1_GWF-(2,23,1)
 Package                          232                  36.448716                   1_GWF-SFR-1-(7)-qfrommvr
 Model                            233         11 -1.23179038E-03       *                     1_GWF-(2,23,1)
 Package                          233                  35.606435                   1_GWF-SFR-1-(7)-qfrommvr
 Model                            234         11 -1.20302857E-03       *                     1_GWF-(2,23,1)
 Package                          234                  34.770349                   1_GWF-SFR-1-(7)-qfrommvr
 Model                            235         10 -1.17526657E-03       *                     1_GWF-(2,23,1)
 Package                          235                  33.966548                   1_GWF-SFR-1-(7)-qfrommvr
 Model                            236         11 -1.14713916E-03       *                     1_GWF-(2,23,1)
 Package                          236                  33.165979                   1_GWF-SFR-1-(7)-qfrommvr
 Model                            237         10 -1.12099413E-03       *                     1_GWF-(2,23,1)
 Package                          237                  32.125518                   1_GWF-SFR-1-(7)-qfrommvr
 Model                            238         10 -1.09445224E-03       *                     1_GWF-(2,23,1)
 Package                          238                  31.635478                   1_GWF-SFR-1-(7)-qfrommvr
 Model                            239         10 -1.06887904E-03       *                     1_GWF-(2,23,1)
 Package                          239                  30.639496                   1_GWF-SFR-1-(7)-qfrommvr
 Model                            240         10 -1.04390983E-03       *                     1_GWF-(2,23,1)
 Package                          240                  29.954714                   1_GWF-SFR-1-(7)-qfrommvr
 Model                            241         10 -1.01952934E-03       *                     1_GWF-(2,23,1)
 Package                          241                  29.286128                   1_GWF-SFR-1-(7)-qfrommvr
 Model                            242         10 -9.95701643E-04       *                     1_GWF-(2,23,1)
 Package                          242                  28.626635                   1_GWF-SFR-1-(7)-qfrommvr
 Model                            243         10 -9.72457734E-04       *                     1_GWF-(2,23,1)
 Package                          243                  27.972510                   1_GWF-SFR-1-(7)-qfrommvr
 Model                            244         10 -9.49714948E-04       *                     1_GWF-(2,23,1)
 Package                          244                  27.337452                   1_GWF-SFR-1-(7)-qfrommvr
 Model                            245         10 -9.27543542E-04       *                     1_GWF-(2,23,1)
 Package                          245                  26.700619                   1_GWF-SFR-1-(7)-qfrommvr
 Model                            246         10 -9.05847547E-04       *                     1_GWF-(2,23,1)
 Package                          246                  26.095248                   1_GWF-SFR-1-(7)-qfrommvr
 Model                            247         10 -8.84705504E-04       *                     1_GWF-(2,23,1)
 Package                          247                  25.489159                   1_GWF-SFR-1-(7)-qfrommvr
 Model                            248         10 -8.64015346E-04       *                     1_GWF-(2,23,1)
 Package                          248                  24.915854                   1_GWF-SFR-1-(7)-qfrommvr
 Model                            249         10 -8.43849622E-04       *                     1_GWF-(2,23,1)
 Package                          249                  24.337627                   1_GWF-SFR-1-(7)-qfrommvr
 Model                            250         10 -8.24115649E-04       *                     1_GWF-(2,23,1)
 Package                          250                  23.788032                   1_GWF-SFR-1-(7)-qfrommvr
 Model                            251         10 -8.04881246E-04       *                     1_GWF-(2,23,1)
 Package                          251                  23.234300                   1_GWF-SFR-1-(7)-qfrommvr
 Model                            252         10 -7.86059011E-04       *                     1_GWF-(2,23,1)
 Package                          252                  22.707816                   1_GWF-SFR-1-(7)-qfrommvr
 Model                            253         10 -7.67713002E-04       *                     1_GWF-(2,23,1)
 Package                          253                  22.177797                   1_GWF-SFR-1-(7)-qfrommvr
 Model                            254         10 -7.49760259E-04       *                     1_GWF-(2,23,1)
 Package                          254                  21.673847                   1_GWF-SFR-1-(7)-qfrommvr
 Model                            255         10 -7.32261631E-04       *                     1_GWF-(2,23,1)
 Package                          255                  21.166785                   1_GWF-SFR-1-(7)-qfrommvr
 Model                            256         10 -7.15138157E-04       *                     1_GWF-(2,23,1)
 Package                          256                  20.684704                   1_GWF-SFR-1-(7)-qfrommvr
 Model                            257         10 -6.98447766E-04       *                     1_GWF-(2,23,1)
 Package                          257                  20.199834                   1_GWF-SFR-1-(7)-qfrommvr
 Model                            258         10 -6.82115220E-04       *                     1_GWF-(2,23,1)
 Package                          258                  19.738903                   1_GWF-SFR-1-(7)-qfrommvr
 Model                            259         10 -6.66195723E-04       *                     1_GWF-(2,23,1)
 Package                          259                  19.275443                   1_GWF-SFR-1-(7)-qfrommvr
 Model                            260         10 -6.50617547E-04       *                     1_GWF-(2,23,1)
 Package                          260                  18.834911                   1_GWF-SFR-1-(7)-qfrommvr
 Model                            261         10 -6.35433324E-04       *                     1_GWF-(2,23,1)
 Package                          261                  18.392069                   1_GWF-SFR-1-(7)-qfrommvr
 Model                            262         10 -6.20574653E-04       *                     1_GWF-(2,23,1)
 Package                          262                  17.971175                   1_GWF-SFR-1-(7)-qfrommvr
 Model                            263         10 -6.06091730E-04       *                     1_GWF-(2,23,1)
 Package                          263                  17.548156                   1_GWF-SFR-1-(7)-qfrommvr
 Model                            264         10 -5.91919318E-04       *                     1_GWF-(2,23,1)
 Package                          264                  17.146137                   1_GWF-SFR-1-(7)-qfrommvr
 Model                            265          9 -5.78432290E-04       *                     1_GWF-(2,23,1)
 Package                          265                  16.742151                   1_GWF-SFR-1-(7)-qfrommvr
 Model                            266          9 -5.64586663E-04       *                     1_GWF-(2,23,1)
 Package                          266                  16.358249                   1_GWF-SFR-1-(7)-qfrommvr
 Model                            267          9 -5.51409466E-04       *                     1_GWF-(2,23,1)
 Package                          267                  15.723805                   1_GWF-SFR-1-(7)-qfrommvr
 Model                            268          9 -5.38488251E-04       *                     1_GWF-(2,23,1)
 Package                          268                  15.384730                   1_GWF-SFR-1-(7)-qfrommvr
 Model                            269          9 -5.25946027E-04       *                     1_GWF-(2,23,1)
 Package                          269                  15.043548                   1_GWF-SFR-1-(7)-qfrommvr
 Model                            270          9 -5.13675445E-04       *                     1_GWF-(2,23,1)
 Package                          270                  14.739309                   1_GWF-SFR-1-(7)-qfrommvr
 Model                            271          9 -5.01623855E-04       *                     1_GWF-(2,23,1)
 Package                          271                  14.407504                   1_GWF-SFR-1-(7)-qfrommvr
 Model                            272          9 -4.89918734E-04       *                     1_GWF-(2,23,1)
 Package                          272                  14.069567                   1_GWF-SFR-1-(7)-qfrommvr
 Model                            273          9 -4.78505609E-04       *                     1_GWF-(2,23,1)
 Package                          273                  13.780477                   1_GWF-SFR-1-(7)-qfrommvr
 Model                            274          9 -4.67312114E-04       *                     1_GWF-(2,23,1)
 Package                          274                  13.483403                   1_GWF-SFR-1-(7)-qfrommvr
 Model                            275          9 -4.56416001E-04       *                     1_GWF-(2,23,1)
 Package                          275                  13.166175                   1_GWF-SFR-1-(7)-qfrommvr
 Model                            276          9 -4.45736947E-04       *                     1_GWF-(2,23,1)
 Package                          276                  12.868757                   1_GWF-SFR-1-(7)-qfrommvr
 Model                            277          9 -4.35296866E-04       *                     1_GWF-(2,23,1)
 Package                          277                  12.561870                   1_GWF-SFR-1-(7)-qfrommvr
 Model                            278          9 -4.25177246E-04       *                     1_GWF-(2,23,1)
 Package                          278                  12.276316                   1_GWF-SFR-1-(7)-qfrommvr
 Model                            279          8 -4.15384240E-04       *                     1_GWF-(2,23,1)
 Package                          279                  12.018569                   1_GWF-SFR-1-(7)-qfrommvr
 Model                            280          8 -4.05551122E-04       *                     1_GWF-(2,23,1)
 Package                          280                  11.725400                   1_GWF-SFR-1-(7)-qfrommvr
 Model                            281          8 -3.96045357E-04       *                     1_GWF-(2,23,1)
 Package                          281                  11.326032                   1_GWF-SFR-1-(7)-qfrommvr
 Model                            282          8 -3.86792462E-04       *                     1_GWF-(2,23,1)
 Package                          282                  11.053451                   1_GWF-SFR-1-(7)-qfrommvr
 Model                            283          8 -3.77764710E-04       *                     1_GWF-(2,23,1)
 Package                          283                  10.819559                   1_GWF-SFR-1-(7)-qfrommvr
 Model                            284          8 -3.68908524E-04       *                     1_GWF-(2,23,1)
 Package                          284                  10.589076                   1_GWF-SFR-1-(7)-qfrommvr
 Model                            285          8 -3.60347959E-04       *                     1_GWF-(2,23,1)
 Package                          285                  10.354796                   1_GWF-SFR-1-(7)-qfrommvr
 Model                            286          8 -3.51896734E-04       *                     1_GWF-(2,23,1)
 Package                          286                  10.153066                   1_GWF-SFR-1-(7)-qfrommvr
 Model                            287          8 -3.43681859E-04       *                     1_GWF-(2,23,1)
 Package                          287                  9.8992614                   1_GWF-SFR-1-(7)-qfrommvr
 Model                            288          8 -3.35654375E-04       *                     1_GWF-(2,23,1)
 Package                          288                  9.6845208                   1_GWF-SFR-1-(7)-qfrommvr
 Model                            289          7 -3.27918296E-04       *                     1_GWF-(2,23,1)
 Package                          289                  9.4684171                   1_GWF-SFR-1-(7)-qfrommvr
 Model                            290          7 -3.20157278E-04       *                     1_GWF-(2,23,1)
 Package                          290                  9.2559662                   1_GWF-SFR-1-(7)-qfrommvr
 Model                            291          7 -3.12676905E-04       *                     1_GWF-(2,23,1)
 Package                          291                  8.9258596                   1_GWF-SFR-1-(7)-qfrommvr
 Model                            292          7 -3.05364556E-04       *                     1_GWF-(2,23,1)
 Package                          292                  8.7271387                   1_GWF-SFR-1-(7)-qfrommvr
 Model                            293          7 -2.98248879E-04       *                     1_GWF-(2,23,1)
 Package                          293                  8.5442568                   1_GWF-SFR-1-(7)-qfrommvr
 Model                            294          7 -2.91259654E-04       *                     1_GWF-(2,23,1)
 Package                          294                  8.3727481                   1_GWF-SFR-1-(7)-qfrommvr
 Model                            295          7 -2.84474364E-04       *                     1_GWF-(2,23,1)
 Package                          295                  8.1707691                   1_GWF-SFR-1-(7)-qfrommvr
 Model                            296          7 -2.77811106E-04       *                     1_GWF-(2,23,1)
 Package                          296                  8.0129586                   1_GWF-SFR-1-(7)-qfrommvr
 Model                            297          7 -2.71339469E-04       *                     1_GWF-(2,23,1)
 Package                          297                  7.8228323                   1_GWF-SFR-1-(7)-qfrommvr
 Model                            298          7 -2.64984624E-04       *                     1_GWF-(2,23,1)
 Package                          298                  7.6695293                   1_GWF-SFR-1-(7)-qfrommvr
 Model                            299          7 -2.58811980E-04       *                     1_GWF-(2,23,1)
 Package                          299                  7.4858593                   1_GWF-SFR-1-(7)-qfrommvr
 Model                            300          7 -2.52752320E-04       *                     1_GWF-(2,23,1)
 Package                          300                  7.3361071                   1_GWF-SFR-1-(7)-qfrommvr
 Model                            301          7 -2.46862091E-04       *                     1_GWF-(2,23,1)
 Package                          301                  7.1583831                   1_GWF-SFR-1-(7)-qfrommvr
 Model                            302          7 -2.41086286E-04       *                     1_GWF-(2,23,1)
 Package                          302                  7.0102814                   1_GWF-SFR-1-(7)-qfrommvr
 Model                            303          7 -2.35462537E-04       *                     1_GWF-(2,23,1)
 Package                          303                  6.8402974                   1_GWF-SFR-1-(7)-qfrommvr
 Model                            304          6 -2.29959635E-04       *                     1_GWF-(2,23,1)
 Package                          304                  6.6925843                   1_GWF-SFR-1-(7)-qfrommvr
 Model                            305          6 -2.24592587E-04       *                     1_GWF-(2,23,1)
 Package                          305                  6.5333625                   1_GWF-SFR-1-(7)-qfrommvr
 Model                            306          6 -2.19340704E-04       *                     1_GWF-(2,23,1)
 Package                          306                  6.2957297                   1_GWF-SFR-1-(7)-qfrommvr
 Model                            307          6 -2.14209684E-04       *                     1_GWF-(2,23,1)
 Package                          307                  6.1565047                   1_GWF-SFR-1-(7)-qfrommvr
 Model                            308          6 -2.09213211E-04       *                     1_GWF-(2,23,1)
 Package                          308                  6.0243662                   1_GWF-SFR-1-(7)-qfrommvr
 Model                            309          6 -2.04329458E-04       *                     1_GWF-(2,23,1)
 Package                          309                  5.8835218                   1_GWF-SFR-1-(7)-qfrommvr
 Model                            310          6 -1.99550639E-04       *                     1_GWF-(2,23,1)
 Package                          310                  5.7515958                   1_GWF-SFR-1-(7)-qfrommvr
 Model                            311          6 -1.94893218E-04       *                     1_GWF-(2,23,1)
 Package                          311                  5.6305132                   1_GWF-SFR-1-(7)-qfrommvr
 Model                            312          6 -1.90337930E-04       *                     1_GWF-(2,23,1)
 Package                          312                  5.5067562                   1_GWF-SFR-1-(7)-qfrommvr
 Model                            313          6 -1.85893471E-04       *                     1_GWF-(2,23,1)
 Package                          313                  5.3886653                   1_GWF-SFR-1-(7)-qfrommvr
 Model                            314          6 -1.81551616E-04       *                     1_GWF-(2,23,1)
 Package                          314                  5.2701412                   1_GWF-SFR-1-(7)-qfrommvr
 Model                            315          6 -1.77310096E-04       *                     1_GWF-(2,23,1)
 Package                          315                  5.1547105                   1_GWF-SFR-1-(7)-qfrommvr
 Model                            316          6 -1.73170228E-04       *                     1_GWF-(2,23,1)
 Package                          316                  5.0410019                   1_GWF-SFR-1-(7)-qfrommvr
 Model                            317          6 -1.69123830E-04       *                     1_GWF-(2,23,1)
 Package                          317                  4.9294267                   1_GWF-SFR-1-(7)-qfrommvr
 Model                            318          6 -1.65175361E-04       *                     1_GWF-(2,23,1)
 Package                          318                  4.8195611                   1_GWF-SFR-1-(7)-qfrommvr
 Model                            319          6 -1.61315947E-04       *                     1_GWF-(2,23,1)
 Package                          319                  4.7123751                   1_GWF-SFR-1-(7)-qfrommvr
 Model                            320          6 -1.57549347E-04       *                     1_GWF-(2,23,1)
 Package                          320                  4.6060561                   1_GWF-SFR-1-(7)-qfrommvr
 Model                            321          4 -1.53510329E-04       *                     1_GWF-(2,23,1)
 Package                          321                  4.5034598                   1_GWF-SFR-1-(7)-qfrommvr
 Model                            322          6 -1.50581827E-04       *                     1_GWF-(8,23,1)
 Package                          322                  4.4006043                   1_GWF-SFR-1-(7)-qfrommvr
 Model                            323          5 -1.46630536E-04       *                     1_GWF-(2,23,1)
 Package                          323                  4.2146260                   1_GWF-SFR-1-(7)-qfrommvr
 Model                            324          4 -1.43012623E-04       *                     1_GWF-(2,23,1)
 Package                          324                  4.1637295                   1_GWF-SFR-1-(7)-qfrommvr
 Model                            325          6 -1.40354067E-04       *                     1_GWF-(8,23,1)
 Package                          325                  4.0629215                   1_GWF-SFR-1-(7)-qfrommvr
 Model                            326          4 -1.36316276E-04       *                     1_GWF-(2,23,1)
 Package                          326                  3.9026726                   1_GWF-SFR-1-(7)-qfrommvr
 Model                            327          5 -1.33732152E-04       *                     1_GWF-(2,23,1)
 Package                          327                  3.8897614                   1_GWF-SFR-1-(7)-qfrommvr
 Model                            328          4 -1.30117384E-04       *                     1_GWF-(2,23,1)
 Package                          328                  3.7659231                   1_GWF-SFR-1-(7)-qfrommvr
 Model                            329          4 -1.27231650E-04       *                     1_GWF-(2,23,1)
 Package                          329                  3.6703425                   1_GWF-SFR-1-(7)-qfrommvr
 Model                            330          4 -1.24365541E-04       *                     1_GWF-(2,23,1)
 Package                          330                  3.5645840                   1_GWF-SFR-1-(7)-qfrommvr
 Model                            331          4 -1.21489392E-04       *                     1_GWF-(2,23,1)
 Package                          331                  3.4305552                   1_GWF-SFR-1-(7)-qfrommvr
 Model                            332          4 -1.18631657E-04       *                     1_GWF-(2,23,1)
 Package                          332                  3.3343348                   1_GWF-SFR-1-(7)-qfrommvr
 Model                            333          4 -1.15849966E-04       *                     1_GWF-(2,23,1)
 Package                          333                  3.2670834                   1_GWF-SFR-1-(7)-qfrommvr
 Model                            334          4 -1.13171868E-04       *                     1_GWF-(2,23,1)
 Package                          334                  3.2065070                   1_GWF-SFR-1-(7)-qfrommvr
 Model                            335          4 -1.10494005E-04       *                     1_GWF-(2,23,1)
 Package                          335                  3.1464667                   1_GWF-SFR-1-(7)-qfrommvr
 Model                            336          4 -1.07952529E-04       *                     1_GWF-(2,23,1)
 Package                          336                  3.0872710                   1_GWF-SFR-1-(7)-qfrommvr
 Model                            337          4 -1.05391574E-04       *                     1_GWF-(2,23,1)
 Package                          337                  3.0286645                   1_GWF-SFR-1-(7)-qfrommvr
 Model                            338          4 -1.02970974E-04       *                     1_GWF-(2,23,1)
 Package                          338                  2.9698238                   1_GWF-SFR-1-(7)-qfrommvr
 Model                            339          4 -1.00527618E-04       *                     1_GWF-(2,23,1)
 Package                          339                  2.9118609                   1_GWF-SFR-1-(7)-qfrommvr
 Model                            340          4 -9.82172617E-05       *                     1_GWF-(2,23,1)
 Package                          340                  2.8534060                   1_GWF-SFR-1-(7)-qfrommvr
 Model                            341          4 -9.58899726E-05       *                     1_GWF-(2,23,1)
 Package                          341                  2.7963277                   1_GWF-SFR-1-(7)-qfrommvr
 Model                            342          4 -9.36816120E-05       *                     1_GWF-(2,23,1)
 Package                          342                  2.7385335                   1_GWF-SFR-1-(7)-qfrommvr
 Model                            343          4 -9.14674438E-05       *                     1_GWF-(2,23,1)
 Package                          343                  2.6826497                   1_GWF-SFR-1-(7)-qfrommvr
 Model                            344          4 -8.93544174E-05       *                     1_GWF-(2,23,1)
 Package                          344                  2.6257977                   1_GWF-SFR-1-(7)-qfrommvr
 Model                            345          3 -8.69720740E-05       *                     1_GWF-(2,23,1)
 Package                          345                  2.5713764                   1_GWF-SFR-1-(7)-qfrommvr
 Model                            346          3 -8.52876975E-05       *                     1_GWF-(2,23,1)
 Package                          346                  2.5156754                   1_GWF-SFR-1-(7)-qfrommvr
 Model                            347          2 -8.28466744E-05       *                     1_GWF-(2,23,1)
 Package                          347                  2.4215554                   1_GWF-SFR-1-(7)-qfrommvr
 Model                            348          3 -8.16131663E-05       *                     1_GWF-(2,23,1)
 Package                          348                  2.3344515                   1_GWF-SFR-1-(7)-qfrommvr
 Model                            349          3 -7.93330219E-05       *                     1_GWF-(2,23,1)
 Package                          349                  2.2475372                   1_GWF-SFR-1-(7)-qfrommvr
 Model                            350          3 -7.74959110E-05       *                     1_GWF-(2,23,1)
 Package                          350                  2.2112815                   1_GWF-SFR-1-(7)-qfrommvr
 Model                            351          2 -7.54313923E-05       *                     1_GWF-(2,23,1)
 Package                          351                  2.1823772                   1_GWF-SFR-1-(7)-qfrommvr
 Model                            352          2 -7.39099604E-05       *                     1_GWF-(2,23,1)
 Package                          352                  2.1570524                   1_GWF-SFR-1-(7)-qfrommvr
 Model                            353          3 -7.22586816E-05       *                     1_GWF-(2,23,1)
 Package                          353                  2.0779499                   1_GWF-SFR-1-(7)-qfrommvr
 Model                            354          2 -7.03243016E-05       *                     1_GWF-(2,23,1)
 Package                          354                  2.0105605                   1_GWF-SFR-1-(7)-qfrommvr
 Model                            355          2 -6.86640850E-05       *                     1_GWF-(2,23,1)
 Package                          355                  1.9901039                   1_GWF-SFR-1-(7)-qfrommvr
 Model                            356          3 -6.74189117E-05       *                     1_GWF-(2,23,1)
 Package                          356                  1.9663956                   1_GWF-SFR-1-(7)-qfrommvr
 Model                            357          3 -6.58739334E-05       *                     1_GWF-(5,25,3)
 Package                          357                  1.8948673                   1_GWF-SFR-1-(7)-qfrommvr
 Model                            358          2 -6.36614245E-05       *                     1_GWF-(2,23,1)
 Package                          358                  1.8925368                   1_GWF-SFR-1-(7)-qfrommvr
 Model                            359          3 -6.47875345E-05       *                     1_GWF-(5,25,3)
 Package                          359                  1.8682850                   1_GWF-SFR-1-(7)-qfrommvr
 Model                            360          2 -6.07921690E-05       *                     1_GWF-(2,23,1)
 Package                          360                  1.8166981                   1_GWF-SFR-1-(7)-qfrommvr
 Model                            361          3 -6.35562255E-05       *                     1_GWF-(5,25,3)
 Package                          361                  1.7739052                   1_GWF-SFR-1-(7)-qfrommvr
 Model                            362          3 -5.82626477E-05       *                     1_GWF-(2,23,1)
 Package                          362                  1.7280417                   1_GWF-SFR-1-(7)-qfrommvr
 Model                            363          2 -5.93784271E-05       *                     1_GWF-(5,25,3)
 Package                          363                  1.7110268                   1_GWF-SFR-1-(7)-qfrommvr
 Model                            364          3 -5.58448773E-05       *                     1_GWF-(2,23,1)
 Package                          364                  1.6814972                   1_GWF-SFR-1-(7)-qfrommvr
 Model                            365          3 -5.63533268E-05       *                     1_GWF-(5,25,3)
 Package                          365                  1.6330733                   1_GWF-SFR-1-(7)-qfrommvr
 Model                            366          2 -5.26275844E-05       *                     1_GWF-(2,23,1)
 Package                          366                  1.5911094                   1_GWF-SFR-1-(7)-qfrommvr
 Model                            367          3 -5.48743517E-05       *                     1_GWF-(5,25,3)
 Package                          367                  1.5782485                   1_GWF-SFR-1-(7)-qfrommvr
 Model                            368          2 -5.00905789E-05       *                     1_GWF-(2,23,1)
 Package                          368                  1.5222793                   1_GWF-SFR-1-(7)-qfrommvr
 Model                            369          3 -5.43546445E-05       *                     1_GWF-(5,25,3)
 Package                          369                  1.4901363                   1_GWF-SFR-1-(7)-qfrommvr
 Model                            370          2 -4.77829508E-05       *                     1_GWF-(2,23,1)
 Package                          370                  1.4308154                   1_GWF-SFR-1-(7)-qfrommvr
 Model                            371          3 -5.21697444E-05       *                     1_GWF-(5,25,3)
 Package                          371                  1.4338905                   1_GWF-SFR-1-(7)-qfrommvr
 Model                            372          2 -4.55081479E-05       *                     1_GWF-(2,23,1)
 Package                          372                  1.3698771                   1_GWF-SFR-1-(7)-qfrommvr
 Model                            373          3 -5.04277324E-05       *                     1_GWF-(5,25,3)
 Package                          373                  1.3756439                   1_GWF-SFR-1-(7)-qfrommvr
 Model                            374          3 -4.38361158E-05       *                     1_GWF-(2,23,1)
 Package                          374                  1.3091988                   1_GWF-SFR-1-(7)-qfrommvr
 Model                            375          2 -4.57509431E-05       *                     1_GWF-(5,25,3)
 Package                          375                  1.3147769                   1_GWF-SFR-1-(7)-qfrommvr
 Model                            376          3 -4.20272181E-05       *                     1_GWF-(2,23,1)
 Package                          376                  1.2719349                   1_GWF-SFR-1-(7)-qfrommvr
 Model                            377          2 -4.80758986E-05       *                     1_GWF-(5,25,3)
 Package                          377                  1.2538707                   1_GWF-SFR-1-(7)-qfrommvr
 Model                            378          3 -4.00875550E-05       *                     1_GWF-(2,23,1)
 Package                          378                  1.2022947                   1_GWF-SFR-1-(7)-qfrommvr
 Model                            379          3 -4.25297101E-05       *                     1_GWF-(5,25,3)
 Package                          379                  1.1785455                   1_GWF-SFR-1-(7)-qfrommvr
 Model                            380          2 -3.79105660E-05       *                     1_GWF-(2,23,1)
 Package                          380                  1.1598279                   1_GWF-SFR-1-(7)-qfrommvr
 Model                            381          3 -4.48217655E-05       *                     1_GWF-(5,25,3)
 Package                          381                  1.1462238                   1_GWF-SFR-1-(7)-qfrommvr
 Model                            382          3 -3.63830517E-05       *                     1_GWF-(2,23,1)
 Package                          382                  1.1013930                   1_GWF-SFR-1-(7)-qfrommvr
 Model                            383          2 -4.21801906E-05       *                     1_GWF-(5,25,3)
 Package                          383                  1.0740324                   1_GWF-SFR-1-(7)-qfrommvr
 Model                            384          3 -3.47247343E-05       *                     1_GWF-(2,23,1)
 Package                          384                  1.0624861                   1_GWF-SFR-1-(7)-qfrommvr
 Model                            385          3 -4.05791805E-05       *                     1_GWF-(5,25,3)
 Package                          385                  1.0242486                   1_GWF-SFR-1-(7)-qfrommvr
 Model                            386          3 -3.31417308E-05       *                     1_GWF-(2,23,1)
 Package                          386                  1.0049335                   1_GWF-SFR-1-(7)-qfrommvr
 Model                            387          2 -3.94144254E-05       *                     1_GWF-(5,25,3)
 Package                          387                 0.98904067                   1_GWF-SFR-1-(7)-qfrommvr
 Model                            388          3 -3.18283006E-05       *                     1_GWF-(8,23,1)
 Package                          388                 0.97360423                   1_GWF-SFR-1-(7)-qfrommvr
 Model                            389          2 -3.06275489E-05       *                     1_GWF-(2,23,1)
 Package                          389                 0.92592623                   1_GWF-SFR-1-(7)-qfrommvr
 Model                            390          2 -3.01262322E-05       *                     1_GWF-(2,23,1)
 Package                          390                 0.92699430                   1_GWF-SFR-1-(7)-qfrommvr
 Model                            391          3 -3.04530940E-05       *                     1_GWF-(5,25,3)
 Package                          391                 0.89332786                   1_GWF-SFR-1-(7)-qfrommvr
 Model                            392          2 -2.85884884E-05       *                     1_GWF-(2,23,1)
 Package                          392                 0.87360896                   1_GWF-SFR-1-(7)-qfrommvr
 Model                            393          3 -3.10774243E-05       *                     1_GWF-(5,25,3)
 Package                          393                 0.84002775                   1_GWF-SFR-1-(7)-qfrommvr
 Model                            394          2 -2.71729114E-05       *                     1_GWF-(2,23,1)
 Package                          394                 0.84219076                   1_GWF-SFR-1-(7)-qfrommvr
 Model                            395          3 -3.18268884E-05       *                     1_GWF-(5,25,3)
 Package                          395                 0.80672125                   1_GWF-SFR-1-(7)-qfrommvr
 Model                            396          2 -2.56699824E-05       *                     1_GWF-(2,23,1)
 Package                          396                 0.79362991                   1_GWF-SFR-1-(7)-qfrommvr
 Model                            397          3 -3.32712312E-05       *                     1_GWF-(5,25,3)
 Package                          397                 0.77016230                   1_GWF-SFR-1-(7)-qfrommvr
 Model                            398          3 -2.48532833E-05       *                     1_GWF-(2,23,1)
 Package                          398                 0.75023693                   1_GWF-SFR-1-(7)-qfrommvr
 Model                            399          3 -2.87673026E-05       *                     1_GWF-(5,25,3)
 Package                          399                 0.73383744                   1_GWF-SFR-1-(7)-qfrommvr
 Model                            400          2 -2.35044364E-05       *                     1_GWF-(2,23,1)
[...]
 Package                          484             9.24329861E-02                   1_GWF-SFR-1-(7)-qfrommvr
 Model                            485          3 -5.85471381E-06       *                     1_GWF-(5,27,1)
 Package                          485                 0.10063584                   1_GWF-SFR-1-(7)-qfrommvr
 Model                            486          2 -3.01861413E-06       *                     1_GWF-(6,24,5)
 Package                          486             8.81898621E-02                   1_GWF-SFR-1-(7)-qfrommvr
 Model                            487          3 -5.58919050E-06       *                     1_GWF-(5,27,1)
 Package                          487             9.77947985E-02                   1_GWF-SFR-1-(7)-qfrommvr
 Model                            488          2 -3.10362314E-06       *                     1_GWF-(6,24,5)
 Package                          488             8.59954078E-02                   1_GWF-SFR-1-(7)-qfrommvr
 Model                            489          3 -5.50229988E-06       *                     1_GWF-(5,27,1)
 Package                          489             9.30085172E-02                   1_GWF-SFR-1-(7)-qfrommvr
 Model                            490          2 -2.81560744E-06       *                     1_GWF-(6,24,5)
 Package                          490             8.07031632E-02                   1_GWF-SFR-1-(7)-qfrommvr
 Model                            491          3 -5.07801872E-06       *                     1_GWF-(5,27,1)
 Package                          491             8.94258703E-02                   1_GWF-SFR-1-(7)-qfrommvr
 Model                            492          2 -2.79166106E-06       *                     1_GWF-(6,24,5)
 Package                          492             7.85891117E-02                   1_GWF-SFR-1-(7)-qfrommvr
 Model                            493          3 -5.05487991E-06       *                     1_GWF-(5,27,1)
 Package                          493             8.55437876E-02                   1_GWF-SFR-1-(7)-qfrommvr
 Model                            494          2 -2.71588235E-06       *                     1_GWF-(6,24,5)
 Package                          494             7.45377965E-02                   1_GWF-SFR-1-(7)-qfrommvr
 Model                            495          3 -4.77056575E-06       *                     1_GWF-(5,27,1)
 Package                          495             8.17300035E-02                   1_GWF-SFR-1-(7)-qfrommvr
 Model                            496          2 -2.58720862E-06       *                     1_GWF-(6,24,5)
 Package                          496             7.02510144E-02                   1_GWF-SFR-1-(7)-qfrommvr
 Model                            497          2 -4.90460701E-06       *                     1_GWF-(5,27,1)
 Package                          497             7.82023936E-02                   1_GWF-SFR-1-(7)-qfrommvr
 Model                            498          3 -3.02184479E-06       *                     1_GWF-(6,24,5)
 Package                          498             6.79513992E-02                   1_GWF-SFR-1-(7)-qfrommvr
 Model                            499          2 -4.46144471E-06       *                     1_GWF-(5,27,1)
 Package                          499             6.20607645E-02                   1_GWF-SFR-1-(7)-qfrommvr
 Model                            500          2 -2.89698861E-06       *                     1_GWF-(5,24,5)
 Package                          500             6.68261256E-02                   1_GWF-SFR-1-(7)-qfrommvr
 Model                            501          3 -4.49399658E-06       *                     1_GWF-(5,27,1)
 Package                          501             6.56255104E-02                   1_GWF-SFR-1-(7)-qfrommvr
 Model                            502          2 -2.11029177E-06       *                     1_GWF-(6,24,5)
 Package                          502             5.33014645E-02                   1_GWF-SFR-1-(7)-qfrommvr
 Model                            503          2 -3.84623777E-06       *                     1_GWF-(8,28,1)
 Package                          503             6.84150032E-02                   1_GWF-SFR-1-(7)-qfrommvr
 Model                            504          3 -2.51034129E-06       *                     1_GWF-(6,24,5)
 Package                          504             6.01031868E-02                   1_GWF-SFR-1-(7)-qfrommvr
 Model                            505          2 -3.96338483E-06       *                     1_GWF-(5,27,1)
 Package                          505             5.21222623E-02                   1_GWF-SFR-1-(7)-qfrommvr
 Model                            506          2 -2.53397849E-06       *                     1_GWF-(5,24,5)
 Package                          506             6.09771840E-02                   1_GWF-SFR-1-(7)-qfrommvr
 Model                            507          2 -4.32917583E-06       *                     1_GWF-(5,27,1)
 Package                          507             5.86341114E-02                   1_GWF-SFR-1-(7)-qfrommvr
 Model                            508          3 -2.50683085E-06       *                     1_GWF-(8,12,3)
 Package                          508             4.75761338E-02                   1_GWF-SFR-1-(7)-qfrommvr
 Model                            509          1 -2.26060524E-06       *                     1_GWF-(7,21,3)
 Package                          509             4.81052989E-02                   1_GWF-SFR-1-(7)-qfrommvr
 Model                            510          2 -2.89656244E-06       *                     1_GWF-(6,20,7)
 Package                          510             6.12759868E-02                   1_GWF-SFR-1-(7)-qfrommvr
 Model                            511          3 -2.84544629E-06       *                     1_GWF-(7,21,3)
 Package                          511             4.51782009E-02                   1_GWF-SFR-1-(7)-qfrommvr
 Model                            512          2 -2.01311731E-06       *                     1_GWF-(6,19,7)
 Package                          512             4.37343938E-02                   1_GWF-SFR-1-(7)-qfrommvr
 Model                            513          2 -3.05525903E-06       *                     1_GWF-(7,21,3)
 Package                          513             5.64747628E-02                   1_GWF-SFR-1-(7)-qfrommvr
 Model                            514          3 -2.25460492E-06       *                     1_GWF-(4,19,7)
 Package                          514             5.35895394E-02                   1_GWF-SFR-1-(7)-qfrommvr
 Model                            515          2 -2.94350369E-06       *                     1_GWF-(7,21,3)
 Package                          515             4.04387062E-02                   1_GWF-SFR-1-(7)-qfrommvr
 Model                            516          2 -2.27697591E-06       *                     1_GWF-(7,18,8)
 Package                          516             5.34281057E-02                   1_GWF-SFR-1-(7)-qfrommvr
 Model                            517          2 -3.46260904E-06       *                     1_GWF-(7,21,3)
 Package                          517             4.94691251E-02                   1_GWF-SFR-1-(7)-qfrommvr
 Model                            518          2 -2.71439214E-06       *                     1_GWF-(7,18,8)
 Package                          518             4.39749654E-02                   1_GWF-SFR-1-(7)-qfrommvr
 Model                            519          3 -3.08306053E-06       *                     1_GWF-(7,21,3)
 Package                          519             3.36689148E-02                   1_GWF-SFR-1-(7)-qfrommvr
 Model                            520          1 -1.34885784E-06       *                    1_GWF-(5,15,10)
 Package                          520             3.45200392E-02                   1_GWF-SFR-1-(7)-qfrommvr
 Model                            521          2 -2.05953744E-06       *                     1_GWF-(6,21,3)
 Package                          521             4.93866324E-02                   1_GWF-SFR-1-(7)-qfrommvr
 Model                            522          3 -1.72576816E-06       *                     1_GWF-(8,18,2)
 Package                          522             3.33888543E-02                   1_GWF-SFR-1-(7)-qfrommvr
 Model                            523          2 -2.53089145E-06       *                     1_GWF-(6,21,3)
 Package                          523             2.93641949E-02                   1_GWF-SFR-1-(7)-qfrommvr
 Model                            524          2 -2.05660582E-06       *                     1_GWF-(8,18,2)
 Package                          524             4.60748400E-02                   1_GWF-SFR-1-(7)-qfrommvr
 Model                            525          3 -2.83374527E-06       *                     1_GWF-(6,21,3)
 Package                          525             4.32977762E-02                   1_GWF-SFR-1-(7)-qfrommvr
 Model                            526          2 -1.50877582E-06       *                     1_GWF-(6,18,2)
 Package                          526             3.26278940E-02                   1_GWF-SFR-1-(7)-qfrommvr
 Model                            527          2 -2.95023774E-06       *                     1_GWF-(6,21,3)
 Package                          527             4.33414363E-02                   1_GWF-SFR-1-(7)-qfrommvr
 Model                            528          2 -2.06771136E-06       *                     1_GWF-(7,18,2)
 Package                          528             4.14466759E-02                   1_GWF-SFR-1-(7)-qfrommvr
 Model                            529          2 -3.08085081E-06       *                     1_GWF-(6,21,3)
 Package                          529             3.59584811E-02                   1_GWF-SFR-1-(7)-qfrommvr
 Model                            530          2 -2.32365666E-06       *                     1_GWF-(7,18,2)
 Package                          530             2.81561804E-02                   1_GWF-SFR-1-(7)-qfrommvr
 Model                            531          2 -2.64566487E-06       *                     1_GWF-(6,21,3)
 Package                          531             2.54688298E-02                   1_GWF-SFR-1-(7)-qfrommvr
 Model                            532          2 -2.37067477E-06       *                     1_GWF-(7,18,2)
 Package                          532             2.48908945E-02                   1_GWF-SFR-1-(7)-qfrommvr
 Model                            533          2 -2.23262631E-06       *                     1_GWF-(6,21,3)
 Package                          533             2.40266590E-02                   1_GWF-SFR-1-(7)-qfrommvr
 Model                            534          2 -2.29892176E-06       *                     1_GWF-(7,18,2)
 Package                          534             2.38034219E-02                   1_GWF-SFR-1-(7)-qfrommvr
 Model                            535          2 -1.87617164E-06       *                     1_GWF-(6,21,3)
 Package                          535             2.30469423E-02                   1_GWF-SFR-1-(7)-qfrommvr
 Model                            536          2 -2.16689327E-06       *                     1_GWF-(7,18,2)
 Package                          536             2.27988923E-02                   1_GWF-SFR-1-(7)-qfrommvr
 Model                            537          2 -1.58570160E-06       *                     1_GWF-(6,21,3)
 Package                          537             2.22823342E-02                   1_GWF-SFR-1-(7)-qfrommvr
 Model                            538          2 -2.01649007E-06       *                     1_GWF-(7,18,2)
 Package                          538             2.19117319E-02                   1_GWF-SFR-1-(7)-qfrommvr
 Model                            539          2 -1.35706787E-06       *                     1_GWF-(6,21,3)
 Package                          539             2.16396752E-02                   1_GWF-SFR-1-(7)-qfrommvr
 Model                            540          2 -1.87100738E-06       *                     1_GWF-(7,18,2)
 Package                          540             2.11437768E-02                   1_GWF-SFR-1-(7)-qfrommvr
 Model                            541          2 -1.25013563E-06       *                     1_GWF-(2,27,4)
 Package                          541             2.10622177E-02                   1_GWF-SFR-1-(7)-qfrommvr
 Model                            542          2 -1.74003814E-06       *                     1_GWF-(7,18,2)
 Package                          542             2.04758523E-02                   1_GWF-SFR-1-(7)-qfrommvr
 Model                            543          2 -1.19317875E-06       *                     1_GWF-(2,27,4)
 Package                          543             2.05187832E-02                   1_GWF-SFR-1-(7)-qfrommvr
 Model                            544          2 -1.62569000E-06       *                     1_GWF-(7,18,2)
 Package                          544             1.98840259E-02                   1_GWF-SFR-1-(7)-qfrommvr
 Model                            545          2 -1.13907100E-06       *                     1_GWF-(2,27,4)
 Package                          545             1.99938956E-02                   1_GWF-SFR-1-(7)-qfrommvr
 Model                            546          2 -1.52684487E-06       *                     1_GWF-(7,18,2)
 Package                          546             1.93474615E-02                   1_GWF-SFR-1-(7)-qfrommvr
 Model                            547          2 -1.09217011E-06       *                     1_GWF-(2,26,5)
 Package                          547             1.94818164E-02                   1_GWF-SFR-1-(7)-qfrommvr
 Model                            548          2 -1.44134118E-06       *                     1_GWF-(7,18,2)
 Package                          548             1.88512868E-02                   1_GWF-SFR-1-(7)-qfrommvr
 Model                            549          2 -1.06197353E-06       *                     1_GWF-(2,26,5)
 Package                          549             1.89804324E-02                   1_GWF-SFR-1-(7)-qfrommvr
 Model                            550          2 -1.36694219E-06       *                     1_GWF-(7,18,2)
 Package                          550             1.83850077E-02                   1_GWF-SFR-1-(7)-qfrommvr
 Model                            551          2 -1.03220909E-06       *                     1_GWF-(2,26,5)
 Package                          551             1.84893661E-02                   1_GWF-SFR-1-(7)-qfrommvr
 Model                            552          2 -1.30165642E-06       *                     1_GWF-(7,18,2)
 Package                          552             1.79418051E-02                   1_GWF-SFR-1-(7)-qfrommvr
 Model                            553          2 -1.00285074E-06       *                     1_GWF-(3,26,5)
 Package                          553             1.80089445E-02                   1_GWF-SFR-1-(7)-qfrommvr
 Model                            554          2 -1.24383977E-06       *                     1_GWF-(7,18,2)
 Package                          554             1.75167961E-02                   1_GWF-SFR-1-(7)-qfrommvr
 Model                            555          2 -9.73843960E-07       *                     1_GWF-(3,26,5)
 Package                          555             1.75397213E-02                   1_GWF-SFR-1-(7)-qfrommvr
 Model                            556          2 -1.19217675E-06       *                     1_GWF-(7,18,2)
 Package                          556             1.71069118E-02                   1_GWF-SFR-1-(7)-qfrommvr
 Model                            557          2 -9.45080522E-07       *                     1_GWF-(3,26,5)
 Package                          557             1.70815957E-02                   1_GWF-SFR-1-(7)-qfrommvr
 Model                            558          2 -1.14560061E-06       *                     1_GWF-(7,18,2)
 Package                          558             1.67096848E-02                   1_GWF-SFR-1-(7)-qfrommvr
 Model                            559          2 -9.16513812E-07       *                     1_GWF-(3,26,5)
 Package                          559             1.66349455E-02                   1_GWF-SFR-1-(7)-qfrommvr
 Model                            560          2 -1.10328513E-06       *                     1_GWF-(7,18,2)
 Package                          560             1.63236313E-02                   1_GWF-SFR-1-(7)-qfrommvr
 Model                            561          2 -8.88102633E-07       *                     1_GWF-(3,26,5)
 Package                          561             1.61998960E-02                   1_GWF-SFR-1-(7)-qfrommvr
 Model                            562          2 -1.06455647E-06       *                     1_GWF-(7,18,2)
 Package                          562             1.59475179E-02                   1_GWF-SFR-1-(7)-qfrommvr
 Model                            563          2 -8.59863761E-07       *                     1_GWF-(4,26,5)
 Package                          563             1.57761708E-02                   1_GWF-SFR-1-(7)-qfrommvr
 Model                            564          2 -1.02888171E-06       *                     1_GWF-(7,18,2)
 Package                          564             1.55803128E-02                   1_GWF-SFR-1-(7)-qfrommvr
 Model                            565          2 -8.31729658E-07       *                     1_GWF-(4,26,5)
 Package                          565             1.53642480E-02                   1_GWF-SFR-1-(7)-qfrommvr
 Model                            566          2 -9.95840125E-07       *                     1_GWF-(7,18,2)
 Package                          566             1.52216890E-02                   1_GWF-SFR-1-(7)-qfrommvr
 Model                            567          2 -8.03688586E-07       *                     1_GWF-(4,26,5)
 Package                          567             1.49636744E-02                   1_GWF-SFR-1-(7)-qfrommvr
 Model                            568          2 -9.65084162E-07       *                     1_GWF-(7,18,2)
 Package                          568             1.48707910E-02                   1_GWF-SFR-1-(7)-qfrommvr
 Model                            569          2 -7.75729980E-07       *                     1_GWF-(4,26,5)
 Package                          569             1.45744501E-02                   1_GWF-SFR-1-(7)-qfrommvr
 Model                            570          1 -8.56683656E-07       *                     1_GWF-(8,12,3)
 Package                          570             1.45272406E-02                   1_GWF-SFR-1-(7)-qfrommvr
 Model                            571          2 -7.93432569E-07       *                     1_GWF-(2,25,6)
 Package                          571             1.41966757E-02                   1_GWF-SFR-1-(7)-qfrommvr
 Model                            572          1 -7.32956302E-07       *                     1_GWF-(4,29,6)
 Package                          572             5.71573302E-03       *           1_GWF-SFR-1-(7)-qfrommvr
 ----------------------------------------------------------------------------------------------------------


 572 CALLS TO NUMERICAL SOLUTION IN TIME STEP 1 STRESS PERIOD 1
 5101 TOTAL ITERATIONS

 MEMORY MANAGER TOTAL STORAGE BY DATA TYPE, IN MEGABYTES
 -------------------------------
                    ALLOCATED   
 DATA TYPE           MEMORY     
 -------------------------------
 Character        9.62800000E-03
 Logical          4.40000000E-05
 Integer          1.5964800     
 Real             3.1216560     
 -------------------------------
 Total            4.7278080     
 Virtual          0.0000000     
 -------------------------------


 
 Run end date and time (yyyy/mm/dd hh:mm:ss): 2025/11/13 14:58:15
 Elapsed run time:  2.083 Seconds
 Normal termination of simulation.
