                                   MODFLOW 6
                U.S. GEOLOGICAL SURVEY MODULAR HYDROLOGIC MODEL
                            VERSION 6.6.1 02/10/2025

   MODFLOW 6 compiled Feb 14 2025 13:40:10 with Intel(R) Fortran Intel(R) 64
   Compiler Classic for applications running on Intel(R) 64, Version 2021.7.0
                             Build 20220726_000000

This software has been approved for release by the U.S. Geological 
Survey (USGS). Although the software has been subjected to rigorous 
review, the USGS reserves the right to update the software as needed 
pursuant to further analysis and review. No warranty, expressed or 
implied, is made by the USGS or the U.S. Government as to the 
functionality of the software and related material nor shall the 
fact of release constitute any such warranty. Furthermore, the 
software is released on condition that neither the USGS nor the U.S. 
Government shall be held liable for any damages resulting from its 
authorized or unauthorized use. Also refer to the USGS Water 
Resources Software User Rights Notice for complete use, copyright, 
and distribution information.


As a work of the United States Government, this USGS product is 
in the public domain within the United States. You can copy, 
modify, distribute, and perform the work, even for commercial 
purposes, all without asking permission. Additionally, USGS 
waives copyright and related rights in the work worldwide 
through CC0 1.0 Universal Public Domain Dedication 
(https://creativecommons.org/publicdomain/zero/1.0/).

The following GNU Lesser General Public License (LGPL) libraries
are used in this USGS product:

    SPARSKIT version 2.0
      ilut, luson, and qsplit 
      (https://www-users.cse.umn.edu/~saad/software/SPARSKIT/)

    RCM - Reverse Cuthill McKee Ordering
      (https://people.math.sc.edu/Burkardt/f_src/rcm/rcm.html)

    BLAS - Basic Linear Algebra Subprograms Level 1
      (https://people.math.sc.edu/Burkardt/f_src/blas1_d/blas1_d.html)

    SPARSEKIT - Sparse Matrix Utility Package
      amux, dperm, dvperm, rperm, and cperm
      (https://people.sc.fsu.edu/~jburkardt/f77_src/sparsekit/sparsekit.html)

The following BSD-3 License libraries are used in this USGS product:

    Modern Fortran DAG Library
      Copyright (c) 2018, Jacob Williams
      All rights reserved.
      (https://github.com/jacobwilliams/daglib)

MODFLOW 6 compiler options: /O2 /heap-arrays:0 /fpe:0 /traceback /nologo /fpp
/c /module:win64\mod_mf6\ /object:win64\obj_mf6\

System command used to initiate simulation:
C:\Users\gross.DESKTOP-AIRQM2M\anaconda3\Scripts\mf6.exe

MODFLOW was compiled using uniform precision.

Real Variables
  KIND: 8
  TINY (smallest non-zero value):    2.225074-308
  HUGE (largest value):    1.797693+308
  PRECISION: 15
  SIZE IN BITS: 64

Integer Variables
  KIND: 4
  HUGE (largest value): 2147483647
  SIZE IN BITS: 32

Long Integer Variables
  KIND: 8
  HUGE (largest value): 9223372036854775807
  SIZE IN BITS: 64

Logical Variables
  KIND: 4
  SIZE IN BITS: 32
 

 OPENED mfsim.nam
 FILE TYPE:NAM6               UNIT 1001   STATUS:OLD                 
 FORMAT:FORMATTED              ACCESS:SEQUENTIAL          
 ACTION:READ                

 # plsnt_lgr_inset model version 0.post3.dev0+ge07a693
 # Pleasant Lake test case version 0.1.post3.dev0+ge07a693
 # File generated by Flopy version 3.10.0.dev1 on 11/19/2025 at 16:35:59.
 # via modflow-setup version 0.6.0 at 2025-11-19 16:36:00

 OPENED pleasant_lgr.tdis
 FILE TYPE:TDIS6              UNIT 1002   STATUS:OLD                 
 FORMAT:FORMATTED              ACCESS:SEQUENTIAL          
 ACTION:READ                

 # plsnt_lgr_inset model version 0.post3.dev0+ge07a693
 # Pleasant Lake test case version 0.1.post3.dev0+ge07a693
 # File generated by Flopy version 3.10.0.dev1 on 11/19/2025 at 16:35:59.
 # via modflow-setup version 0.6.0 at 2025-11-19 16:36:00
 # perlen nstp tsmult

 OPENED plsnt_lgr_parent.nam
 FILE TYPE:GWF6               UNIT 1003   STATUS:OLD                 
 FORMAT:FORMATTED              ACCESS:SEQUENTIAL          
 ACTION:READ                

 # Pleasant Lake test case version 0.1.post3.dev0+ge07a693
 # File generated by Flopy version 3.10.0.dev1 on 11/19/2025 at 16:36:00.
 # via modflow-setup version 0.6.0 at 2025-11-19 16:36:00

 OPENED plsnt_lgr_parent.dis
 FILE TYPE:DIS6               UNIT 1004   STATUS:OLD                 
 FORMAT:FORMATTED              ACCESS:SEQUENTIAL          
 ACTION:READ                

 # Pleasant Lake test case version 0.1.post3.dev0+ge07a693
 # File generated by Flopy version 3.10.0.dev1 on 11/19/2025 at 16:36:00.
 # via modflow-setup version 0.6.0 at 2025-11-19 16:36:00

 OPENED plsnt_lgr_parent.npf
 FILE TYPE:NPF6               UNIT 1015   STATUS:OLD                 
 FORMAT:FORMATTED              ACCESS:SEQUENTIAL          
 ACTION:READ                

 # Pleasant Lake test case version 0.1.post3.dev0+ge07a693
 # File generated by Flopy version 3.10.0.dev1 on 11/19/2025 at 16:36:00.
 # via modflow-setup version 0.6.0 at 2025-11-19 16:36:00

 OPENED plsnt_lgr_parent.sto
 FILE TYPE:STO6               UNIT 1026   STATUS:OLD                 
 FORMAT:FORMATTED              ACCESS:SEQUENTIAL          
 ACTION:READ                

 # Pleasant Lake test case version 0.1.post3.dev0+ge07a693
 # File generated by Flopy version 3.10.0.dev1 on 11/19/2025 at 16:36:00.
 # via modflow-setup version 0.6.0 at 2025-11-19 16:36:00

 OPENED plsnt_lgr_parent.ic
 FILE TYPE:IC6                UNIT 1037   STATUS:OLD                 
 FORMAT:FORMATTED              ACCESS:SEQUENTIAL          
 ACTION:READ                

 # Pleasant Lake test case version 0.1.post3.dev0+ge07a693
 # File generated by Flopy version 3.10.0.dev1 on 11/19/2025 at 16:36:00.
 # via modflow-setup version 0.6.0 at 2025-11-19 16:36:00

 OPENED plsnt_lgr_parent.oc
 FILE TYPE:OC6       UNIT 1043   STATUS:OLD                 
 FORMAT:FORMATTED              ACCESS:SEQUENTIAL          
 ACTION:READ                


 OPENED plsnt_lgr_parent.obs
 FILE TYPE:OBS6      UNIT 1044   STATUS:OLD                 
 FORMAT:FORMATTED              ACCESS:SEQUENTIAL          
 ACTION:READ                


 OPENED plsnt_lgr_parent.wel
 FILE TYPE:WEL6               UNIT 1045   STATUS:OLD                 
 FORMAT:FORMATTED              ACCESS:SEQUENTIAL          
 ACTION:READ                

 # Pleasant Lake test case version 0.1.post3.dev0+ge07a693
 # File generated by Flopy version 3.10.0.dev1 on 11/19/2025 at 16:36:00.
 # via modflow-setup version 0.6.0 at 2025-11-19 16:36:00

 OPENED plsnt_lgr_parent.rcha
 FILE TYPE:RCH6               UNIT 1047   STATUS:OLD                 
 FORMAT:FORMATTED              ACCESS:SEQUENTIAL          
 ACTION:READ                

 # Pleasant Lake test case version 0.1.post3.dev0+ge07a693
 # File generated by Flopy version 3.10.0.dev1 on 11/19/2025 at 16:36:00.
 # via modflow-setup version 0.6.0 at 2025-11-19 16:36:00

 OPENED plsnt_lgr_parent.chd
 FILE TYPE:CHD6               UNIT 1048   STATUS:OLD                 
 FORMAT:FORMATTED              ACCESS:SEQUENTIAL          
 ACTION:READ                

 # Pleasant Lake test case version 0.1.post3.dev0+ge07a693
 # File generated by Flopy version 3.10.0.dev1 on 11/19/2025 at 16:36:00.
 # via modflow-setup version 0.6.0 at 2025-11-19 16:36:00

 OPENED plsnt_lgr_parent.sfr
 FILE TYPE:SFR6      UNIT 1049   STATUS:OLD                 
 FORMAT:FORMATTED              ACCESS:SEQUENTIAL          
 ACTION:READ                


 OPENED plsnt_lgr_inset.nam
 FILE TYPE:GWF6               UNIT 1050   STATUS:OLD                 
 FORMAT:FORMATTED              ACCESS:SEQUENTIAL          
 ACTION:READ                

 # plsnt_lgr_inset model version 0.post3.dev0+ge07a693
 # File generated by Flopy version 3.10.0.dev1 on 11/19/2025 at 16:36:00.
 # via modflow-setup version 0.6.0 at 2025-11-19 16:36:01

 OPENED plsnt_lgr_inset.dis
 FILE TYPE:DIS6               UNIT 1051   STATUS:OLD                 
 FORMAT:FORMATTED              ACCESS:SEQUENTIAL          
 ACTION:READ                

 # plsnt_lgr_inset model version 0.post3.dev0+ge07a693
 # File generated by Flopy version 3.10.0.dev1 on 11/19/2025 at 16:36:00.
 # via modflow-setup version 0.6.0 at 2025-11-19 16:36:01

 OPENED plsnt_lgr_inset.npf
 FILE TYPE:NPF6               UNIT 1063   STATUS:OLD                 
 FORMAT:FORMATTED              ACCESS:SEQUENTIAL          
 ACTION:READ                

 # plsnt_lgr_inset model version 0.post3.dev0+ge07a693
 # File generated by Flopy version 3.10.0.dev1 on 11/19/2025 at 16:36:00.
 # via modflow-setup version 0.6.0 at 2025-11-19 16:36:01

 OPENED plsnt_lgr_inset.sto
 FILE TYPE:STO6               UNIT 1074   STATUS:OLD                 
 FORMAT:FORMATTED              ACCESS:SEQUENTIAL          
 ACTION:READ                

 # plsnt_lgr_inset model version 0.post3.dev0+ge07a693
 # File generated by Flopy version 3.10.0.dev1 on 11/19/2025 at 16:36:00.
 # via modflow-setup version 0.6.0 at 2025-11-19 16:36:01

 OPENED plsnt_lgr_inset.ic
 FILE TYPE:IC6                UNIT 1085   STATUS:OLD                 
 FORMAT:FORMATTED              ACCESS:SEQUENTIAL          
 ACTION:READ                

 # plsnt_lgr_inset model version 0.post3.dev0+ge07a693
 # File generated by Flopy version 3.10.0.dev1 on 11/19/2025 at 16:36:00.
 # via modflow-setup version 0.6.0 at 2025-11-19 16:36:01

 OPENED plsnt_lgr_inset.oc
 FILE TYPE:OC6       UNIT 1091   STATUS:OLD                 
 FORMAT:FORMATTED              ACCESS:SEQUENTIAL          
 ACTION:READ                


 OPENED plsnt_lgr_inset.obs
 FILE TYPE:OBS6      UNIT 1092   STATUS:OLD                 
 FORMAT:FORMATTED              ACCESS:SEQUENTIAL          
 ACTION:READ                


 OPENED plsnt_lgr_inset.rcha
 FILE TYPE:RCH6               UNIT 1094   STATUS:OLD                 
 FORMAT:FORMATTED              ACCESS:SEQUENTIAL          
 ACTION:READ                

 # plsnt_lgr_inset model version 0.post3.dev0+ge07a693
 # File generated by Flopy version 3.10.0.dev1 on 11/19/2025 at 16:36:00.
 # via modflow-setup version 0.6.0 at 2025-11-19 16:36:01

 OPENED plsnt_lgr_inset.sfr
 FILE TYPE:SFR6      UNIT 1095   STATUS:OLD                 
 FORMAT:FORMATTED              ACCESS:SEQUENTIAL          
 ACTION:READ                


 OPENED plsnt_lgr_inset.lak
 FILE TYPE:LAK6      UNIT 1096   STATUS:OLD                 
 FORMAT:FORMATTED              ACCESS:SEQUENTIAL          
 ACTION:READ                


 OPENED pleasant_lgr.gwfgwf
 FILE TYPE:GWF6-GWF6          UNIT 1097   STATUS:OLD                 
 FORMAT:FORMATTED              ACCESS:SEQUENTIAL          
 ACTION:READ                

 # plsnt_lgr_inset model version 0.post3.dev0+ge07a693
 # Pleasant Lake test case version 0.1.post3.dev0+ge07a693
 # File generated by Flopy version 3.10.0.dev1 on 11/19/2025 at 16:36:00.
 # via modflow-setup version 0.6.0 at 2025-11-19 16:36:00
    AUXILIARY  VARIABLE: ANGLDEGX        
    AUXILIARY  VARIABLE: CDIST           

 READING SIMULATION OPTIONS
    MAXIMUM NUMBER OF ERRORS THAT WILL BE STORED IS 1000
 END OF SIMULATION OPTIONS

 READING SIMULATION TIMING

 TDIS -- TEMPORAL DISCRETIZATION PACKAGE,
 VERSION 1 : 11/13/2014 - INPUT READ FROM MEMPATH: __INPUT__/SIM/TDIS                                
 PROCESSING TDIS OPTIONS
    SIMULATION TIME UNIT IS DAYS
    SIMULATION STARTING DATE AND TIME IS 2012-01-01                    
 END OF TDIS OPTIONS
 PROCESSING TDIS DIMENSIONS
   13 STRESS PERIOD(S) IN SIMULATION
 END OF TDIS DIMENSIONS
 PROCESSING TDIS PERIODDATA


 STRESS PERIOD     LENGTH       TIME STEPS     MULTIPLIER FOR DELT
 ----------------------------------------------------------------------------
        1         1.000000          1                    1.000
        2         31.00000          1                    1.500
        3         29.00000          1                    1.500
        4         31.00000          1                    1.500
        5         30.00000          1                    1.500
        6         31.00000          1                    1.500
        7         30.00000          1                    1.500
        8         31.00000          1                    1.500
        9         31.00000          1                    1.500
       10         30.00000          1                    1.500
       11         31.00000          1                    1.500
       12         30.00000          1                    1.500
       13         31.00000          1                    1.500
 END OF TDIS PERIODDATA
 END OF SIMULATION TIMING

 READING SIMULATION MODELS
    GWF6 model 1 will be created
    GWF6 model 2 will be created
 END OF SIMULATION MODELS

 READING SIMULATION EXCHANGES
    GWF6-GWF6 exchange 1 will be created to connect model 1 with model 2
 END OF SIMULATION EXCHANGES

 READING SOLUTIONGROUP

 Creating solution: SLN_1           

 OPENED pleasant_lgr.ims
 FILE TYPE:IMS   UNIT 1100   STATUS:OLD                 
 FORMAT:FORMATTED              ACCESS:SEQUENTIAL          
 ACTION:READ                

 END OF SOLUTIONGROUP

 Creating exchange: GWF-GWF_1       
 PROCESSING GWF-GWF EXCHANGE OPTIONS

 OPENED pleasant_lgr.mvr
 FILE TYPE:MVR   UNIT 1112   STATUS:OLD                 
 FORMAT:FORMATTED              ACCESS:SEQUENTIAL          
 ACTION:READ                

    WATER MOVER INFORMATION WILL BE READ FROM 
    pleasant_lgr.mvr
 END OF GWF-GWF EXCHANGE OPTIONS
 PROCESSING EXCHANGE DIMENSIONS
    NEXG = 1390
 END OF EXCHANGE DIMENSIONS
 PROCESSING EXCHANGEDATA
 END OF EXCHANGEDATA

PROCESSING MODEL CONNECTIONS
END OF MODEL CONNECTIONS

 OPENED .\external\plsnt_lgr_parent_wel_000.dat
 FILE TYPE:OPEN/CLOSE   UNIT 1113   STATUS:OLD                 
 FORMAT:FORMATTED              ACCESS:SEQUENTIAL          
 ACTION:READ                


 OPENED .\external\plsnt_lgr_parent_chd_000.dat
 FILE TYPE:OPEN/CLOSE   UNIT 1114   STATUS:OLD                 
 FORMAT:FORMATTED              ACCESS:SEQUENTIAL          
 ACTION:READ                


 MVR -- WATER MOVER PACKAGE, VERSION 8, 1/29/2016 INPUT READ FROM UNIT 1112
 # plsnt_lgr_inset model version 0.post3.dev0+ge07a693
 # Pleasant Lake test case version 0.1.post3.dev0+ge07a693
 # File generated by Flopy version 3.10.0.dev1 on 11/19/2025 at 16:36:00.
 # via modflow-setup version 0.6.0 at 2025-11-19 16:36:00
 PROCESSING MVR OPTIONS
    LISTS OF WATER MOVER FLOWS WILL BE PRINTED TO LIST FILE.
    ALL PACKAGE NAMES ARE PRECEDED BY THE NAME OF THE MODEL CONTAINING THE PACKAGE.
 END OF MVR OPTIONS

 PROCESSING MVR DIMENSIONS
    MAXMVR = 2
    MAXPACKAGES = 2
 END OF MVR DIMENSIONS

 PROCESSING MVR PACKAGES
   INCLUDING PACKAGE: PLSNT_LGR_INSET/SFR_0
   INCLUDING PACKAGE: PLSNT_LGR_PARENT/SFR_0
 END OF MVR PACKAGES

 IMS -- ITERATIVE MODEL SOLUTION PACKAGE, VERSION 6, 4/28/2017
         INPUT READ FROM UNIT 1100
 # plsnt_lgr_inset model version 0.post3.dev0+ge07a693
 # Pleasant Lake test case version 0.1.post3.dev0+ge07a693
 # File generated by Flopy version 3.10.0.dev1 on 11/19/2025 at 16:35:59.
 # via modflow-setup version 0.6.0 at 2025-11-19 16:36:00

 PROCESSING IMS OPTIONS
 MODERATE OPTION:
 DEFAULT SOLVER INPUT VALUES REFLECT MODERATELY NONLINEAR MODEL

 OPENED solver_outer_out.csv
 FILE TYPE:CSV_OUTER_OUTPUT   UNIT 1127   STATUS:REPLACE             
 FORMAT:FORMATTED              ACCESS:SEQUENTIAL          
 ACTION:READWRITE           

    CSV OUTPUT WILL BE SAVED TO FILE: solver_outer_out.csv
    OPENED ON UNIT:    1127
 END OF IMS OPTIONS

 PROCESSING IMS NONLINEAR
 END OF IMS NONLINEAR DATA
 **UNDER-RELAXATION WILL BE USED***
 

 PROCESSING LINEAR DATA
 END OF LINEAR DATA
 ***IMS LINEAR SOLVER WILL BE USED***

 IMSLINEAR -- UNSTRUCTURED LINEAR SOLUTION PACKAGE, VERSION 8, 04/28/2017
 An asymmetric matrix will be solved

 OUTER ITERATION CONVERGENCE CRITERION    (DVCLOSE) =    0.100000E-01
 MAXIMUM NUMBER OF OUTER ITERATIONS        (MXITER) = 200
 SOLVER PRINTOUT INDEX                     (IPRIMS) = 2
 NONLINEAR ITERATION METHOD            (NONLINMETH) = 3
 LINEAR SOLUTION METHOD                   (LINMETH) = 1
 UNDER-RELAXATION WEIGHT REDUCTION FACTOR   (THETA) =    0.900000E+00
 UNDER-RELAXATION WEIGHT INCREASE INCREMENT (KAPPA) =    0.100000E-03
 UNDER-RELAXATION PREVIOUS HISTORY FACTOR   (GAMMA) =    0.000000E+00
 UNDER-RELAXATION MOMENTUM TERM         (AMOMENTUM) =    0.000000E+00

       SOLUTION BY THE BICONJUGATE-GRADIENT STABILIZED METHOD
 ------------------------------------------------------------------
 MAXIMUM OF 200 CALLS OF SOLUTION ROUTINE
 MAXIMUM OF 100 INTERNAL ITERATIONS PER CALL TO SOLUTION ROUTINE
 LINEAR ACCELERATION METHOD            = BCGS      
 MATRIX PRECONDITIONING TYPE           = MOD. INCOMPLETE LU  
 MATRIX SCALING APPROACH               = NO SCALING          
 MATRIX REORDERING APPROACH            = ORIGINAL ORDERING        
 NUMBER OF ORTHOGONALIZATIONS          = 0
 HEAD CHANGE CRITERION FOR CLOSURE     =    0.10000E-03
 RESIDUAL CHANGE CRITERION FOR CLOSURE =    0.10000E-03
 RESIDUAL CONVERGENCE OPTION           = 3
 RESIDUAL CONVERGENCE NORM             = RELATIVE L2NORM 
 RELAXATION FACTOR                     =    0.97000E+00



 
    Solving:  Stress period:     1    Time step:     1
 
1
 STRESS PERIOD NO. 1, LENGTH =   1.000000    
 ------------------------------------------
 NUMBER OF TIME STEPS = 1
 MULTIPLIER FOR DELT =     1.000
 #k i j q boundname

 OPENED .\external\plsnt_lgr_parent_wel_001.dat
 FILE TYPE:OPEN/CLOSE   UNIT 1128   STATUS:OLD                 
 FORMAT:FORMATTED              ACCESS:SEQUENTIAL          
 ACTION:READ                

 #k i j head boundname

 OPENED .\external\plsnt_lgr_parent_chd_001.dat
 FILE TYPE:OPEN/CLOSE   UNIT 1131   STATUS:OLD                 
 FORMAT:FORMATTED              ACCESS:SEQUENTIAL          
 ACTION:READ                


  READING WATER MOVERS FOR PERIOD 1

 END OF DATA FOR PERIOD      1

    2 MOVERS READ FOR PERIOD 1
 INITIAL TIME STEP SIZE =   1.000000    



 PSEUDO-TRANSIENT CONTINUATION WILL BE APPLIED TO MODEL 1 ("PLSNT_LGR_PARENT") DURING THIS TIME STEP
 PSEUDO-TRANSIENT CONTINUATION WILL BE APPLIED TO MODEL 2 ("PLSNT_LGR_INSET") DURING THIS TIME STEP

 SLN_1 OUTER ITERATION SUMMARY
 ----------------------------------------------------------------------------------------------------------
                                OUTER      INNER                    STEP   MAXIMUM CHANGE MODEL-(CELLID) OR
 OUTER ITERATION STEP       ITERATION  ITERATION  MAXIMUM CHANGE SUCCESS             MODEL-PACKAGE-(NUMBER)
 ----------------------------------------------------------------------------------------------------------
 Model                              1          8      -47.457784                              1_GWF-(1,4,4)
 Model                              2         65      -18.032378                             2_GWF-(5,49,3)
 Model                              3        100      -9.7096011                             2_GWF-(1,43,4)
 Model                              4         70      -7.7578322                             2_GWF-(2,55,6)
 Model                              5         75      -4.5823257                             2_GWF-(2,58,8)
 Model                              6         89      -2.5176803                            2_GWF-(4,75,22)
 Model                              7         16      -1.4091678                            2_GWF-(1,74,70)
 Model                              8         17     -0.57531683                            2_GWF-(1,75,33)
 Model                              9         19     -0.42903946                            2_GWF-(1,56,63)
 Model                             10         20     -0.41322711                            2_GWF-(4,56,62)
 Model                             11         21     -0.35601840                            2_GWF-(1,56,61)
 Model                             12         26     -0.45901078                            2_GWF-(4,56,60)
 Model                             13         20     -0.28880583                            2_GWF-(4,55,60)
 Model                             14         21     -0.26270095                            2_GWF-(4,55,59)
 Model                             15         20     -0.20010078                            2_GWF-(1,55,59)
 Model                             16         19     -0.13764571                            2_GWF-(1,55,59)
 Model                             17         22     -0.11747506                            2_GWF-(1,54,59)
 Model                             18         18     -0.11657454                            2_GWF-(1,54,59)
 Model                             19         18     -0.11356642                            2_GWF-(1,54,59)
 Model                             20         18     -0.10807204                            2_GWF-(1,54,59)
 Model                             21         18     -0.10081444                            2_GWF-(1,54,59)
 Model                             22         17 -4.81163502E-02                            2_GWF-(1,55,63)
 Model                             23         17 -4.13184536E-02                            2_GWF-(1,55,63)
 Model                             24         17 -3.66376615E-02                            2_GWF-(1,55,63)
 Model                             25         18 -3.04140306E-02                            2_GWF-(1,54,60)
 Model                             26         16 -2.67382706E-02                            2_GWF-(1,54,60)
 Model                             27         17 -2.36015646E-02                            2_GWF-(1,54,60)
 Model                             28         16 -2.04845654E-02                            2_GWF-(1,54,60)
 Model                             29         17 -1.80492198E-02                            2_GWF-(1,54,60)
 Model                             30         16 -1.56494351E-02                            2_GWF-(1,54,60)
 Model                             31         16 -1.36593934E-02                            2_GWF-(1,54,60)
 Model                             32          9 -8.26621459E-03       *                    2_GWF-(1,54,60)
 Package                           32             6.53111977E-03       *              2_GWF-LAK_0-(1)-stage
 ----------------------------------------------------------------------------------------------------------


 32 CALLS TO NUMERICAL SOLUTION IN TIME STEP 1 STRESS PERIOD 1
 876 TOTAL ITERATIONS

 SLN_1 INNER ITERATION SUMMARY
 --------------------------------------------------------------------------------------------------------------------------------------
      TOTAL      OUTER      INNER                                                            MAXIMUM                                   
  ITERATION  ITERATION  ITERATION  MAXIMUM CHANGE      MAXIMUM CHANGE MODEL-(CELLID)        RESIDUAL    MAXIMUM RESIDUAL MODEL-(CELLID)
 --------------------------------------------------------------------------------------------------------------------------------------
          1          1          1      -46.343975                      1_GWF-(2,2,2)      -37658.232                      1_GWF-(2,2,2)
          2          1          2       6.6285482                     1_GWF-(3,19,4)      -13800.229                    1_GWF-(3,21,20)
          3          1          3       8.6236825                    1_GWF-(3,21,20)      -1902.2898                      1_GWF-(1,3,3)
          4          1          4     -0.90786561                      2_GWF-(2,3,4)      -1728.2893                    1_GWF-(3,21,20)
          5          1          5      0.90452575                    1_GWF-(3,21,20)      -365.67905                    1_GWF-(3,21,20)
          6          1          6     -0.28244977                      2_GWF-(1,6,5)      -147.43110                    1_GWF-(3,21,20)
          7          1          7 -8.48551046E-02                      2_GWF-(1,7,7)      -39.670977                    1_GWF-(3,21,20)
          8          1          8 -4.16543416E-02                      2_GWF-(1,9,8)      -10.013549                    1_GWF-(3,21,20)
          9          2          1       35.764243                     1_GWF-(1,23,8)       9731.5553                     1_GWF-(2,23,8)
         10          2          2       42.410863                    2_GWF-(1,75,85)       6980.6320                    2_GWF-(2,75,85)
         11          2          3      -20.337133                    2_GWF-(1,75,85)       9835.2344                     1_GWF-(2,23,8)
         12          2          4      -23.381889                     1_GWF-(1,23,8)       3911.8272                     1_GWF-(2,23,8)
         13          2          5      -10.329851                     1_GWF-(1,23,8)       1213.4105                     1_GWF-(2,23,8)
         14          2          6      -1.5285560                     2_GWF-(5,49,4)       853.94366                     1_GWF-(2,23,8)
         15          2          7      -2.6425645                     1_GWF-(1,23,8)      -692.32029                     1_GWF-(5,23,8)
         16          2          8      -2.4595839                     2_GWF-(5,49,5)      -873.18233                     1_GWF-(5,23,8)
         17          2          9      -1.2597440                    2_GWF-(1,62,74)      -993.74856                     1_GWF-(5,23,8)
         18          2         10     -0.73723372                     2_GWF-(5,53,8)      -1102.2695                     1_GWF-(5,23,8)
         19          2         11      0.55223226                    2_GWF-(3,62,74)      -1090.0217                     1_GWF-(5,23,8)
         20          2         12     -0.83595855                    2_GWF-(5,10,12)      -1255.4849                     1_GWF-(5,23,8)
         21          2         13      0.10223524                     1_GWF-(1,23,8)      -1237.7257                     1_GWF-(5,23,8)
         22          2         14     -0.78316641                    2_GWF-(5,14,13)      -1423.7502                     1_GWF-(5,23,8)
         23          2         15       1.3015222                     1_GWF-(1,23,8)      -1081.5942                     1_GWF-(5,23,8)
         24          2         16      -1.1541376                     1_GWF-(1,23,8)      -1293.7166                     1_GWF-(5,23,8)
         25          2         17      -1.2858841                    2_GWF-(5,21,15)      -1596.7356                     1_GWF-(5,23,8)
         26          2         18       1.5222911                    2_GWF-(5,24,18)      -1150.4674                     1_GWF-(5,23,8)
         27          2         19     -0.54448578                    2_GWF-(5,24,18)      -1215.8525                     1_GWF-(5,23,8)
         28          2         20     -0.12453316                    2_GWF-(2,31,38)      -1223.8325                     1_GWF-(5,23,8)
         29          2         21 -3.39222927E-02                    2_GWF-(5,29,28)      -1231.7625                     1_GWF-(5,23,8)
         30          2         22     -0.10668120                     2_GWF-(5,69,7)      -1194.5316                     1_GWF-(5,23,8)
         31          2         23      0.39664397                    2_GWF-(5,28,33)      -1011.9883                     1_GWF-(5,23,8)
         32          2         24 -7.63207472E-02                    2_GWF-(2,31,38)      -1018.5095                     1_GWF-(5,23,8)
         33          2         25     -0.86024773                    2_GWF-(5,25,20)      -834.03308                     1_GWF-(5,23,8)
         34          2         26  7.80430868E-02                     1_GWF-(4,23,9)      -871.29831                     1_GWF-(5,23,8)
         35          2         27     -0.51349263                    2_GWF-(5,25,19)      -658.92453                     1_GWF-(5,23,8)
         36          2         28     -0.86895487                    2_GWF-(5,29,29)      -511.02027                     1_GWF-(5,23,8)
         37          2         29      -2.3657439                    2_GWF-(5,29,26)       356.65332                     1_GWF-(5,23,8)
         38          2         30       1.7681133                    2_GWF-(5,29,25)      -371.13353                     1_GWF-(5,23,8)
         39          2         31  2.20921310E-02                     1_GWF-(4,23,9)      -383.69118                     1_GWF-(5,23,8)
         40          2         32  9.25900254E-02                    2_GWF-(5,29,34)      -379.44509                     1_GWF-(5,23,8)
         41          2         33      0.70787139                    2_GWF-(5,30,29)      -568.36445                     1_GWF-(5,23,8)
         42          2         34      -1.5839389                    2_GWF-(5,30,31)      -214.20340                     1_GWF-(5,23,8)
         43          2         35     -0.35865944                    2_GWF-(5,33,29)       141.63674                     1_GWF-(4,23,9)
         44          2         36  1.52639899E-02                    2_GWF-(1,72,44)       140.41325                     1_GWF-(4,23,9)
         45          2         37     -0.19960996                    2_GWF-(5,57,37)       126.48179                     1_GWF-(4,23,9)
         46          2         38     -0.10078799                    2_GWF-(5,59,38)       123.91061                     1_GWF-(4,23,9)
         47          2         39      0.16467174                    2_GWF-(1,72,44)       72.898279                     1_GWF-(4,23,9)
         48          2         40     -0.12906258                    2_GWF-(1,72,44)       77.056856                     1_GWF-(4,23,9)
         49          2         41     -0.10851024                    2_GWF-(1,72,44)       82.328089                     1_GWF-(4,23,9)
         50          2         42 -9.23179453E-02                    2_GWF-(1,73,44)       79.846994                     1_GWF-(4,23,9)
         51          2         43      0.27080622                    2_GWF-(1,73,44)       63.246822                     1_GWF-(4,23,9)
         52          2         44     -0.47720219                    2_GWF-(1,73,44)       95.161748                     1_GWF-(4,23,9)
         53          2         45 -4.91725030E-03                    2_GWF-(1,73,44)       94.666995                     1_GWF-(4,23,9)
         54          2         46      0.68756175                    2_GWF-(1,72,44)       34.369017                     1_GWF-(4,23,9)
         55          2         47      -1.1046966                    2_GWF-(1,72,44)       150.64611                     1_GWF-(4,23,9)
         56          2         48     -0.40224207                    2_GWF-(1,73,44)       212.89339                     1_GWF-(4,23,9)
         57          2         49      0.76059514                    2_GWF-(1,72,44)       109.65087                     1_GWF-(4,23,9)
         58          2         50      -1.8932872                    2_GWF-(1,72,44)       507.31697                     1_GWF-(4,23,9)
         59          2         51       1.2845424                    2_GWF-(1,72,44)       233.86841                     1_GWF-(4,23,9)
         60          2         52       1.9154759                    2_GWF-(1,72,44)      -228.46488                     1_GWF-(4,23,9)
         61          2         53     -0.13295585                    2_GWF-(1,72,44)      -208.17698                     1_GWF-(4,23,9)
         62          2         54  8.01091060E-02                    2_GWF-(1,72,44)      -231.68934                     1_GWF-(4,23,9)
         63          2         55     -0.65599029                    2_GWF-(1,72,44)      -104.18033                     1_GWF-(4,23,9)
         64          2         56      -1.9981545                     1_GWF-(4,24,8)       506.24756                     1_GWF-(4,23,9)
         65          2         57       1.8108595                     1_GWF-(4,24,8)      -50.142117                     1_GWF-(4,23,9)
         66          2         58  9.89105796E-03                    2_GWF-(3,62,74)      -50.650733                     1_GWF-(4,23,9)
         67          2         59     -0.18306926                    2_GWF-(1,72,44)      -27.300814                     1_GWF-(4,23,9)
         68          2         60 -3.57542819E-02                     1_GWF-(4,24,8)      -15.986971                     1_GWF-(4,23,9)
         69          2         61 -2.64387845E-02                    2_GWF-(1,72,44)      -9.5236117                     1_GWF-(4,23,9)
         70          2         62  3.61209233E-02                    2_GWF-(1,72,44)      -18.895416                     1_GWF-(4,23,9)
         71          2         63 -6.20055506E-02                    2_GWF-(1,72,44)      -4.8701542                     1_GWF-(4,23,9)
         72          2         64 -8.98981749E-03                    2_GWF-(1,72,44)      -2.6450592                     1_GWF-(4,23,9)
         73          2         65 -5.65970815E-03                    2_GWF-(1,72,44)      -1.5064763                     1_GWF-(4,23,9)
         74          3          1      -26.569939                     1_GWF-(4,23,8)      -5951.0743                     1_GWF-(4,23,8)
         75          3          2      -69.779262                     1_GWF-(1,22,8)      -21211.966                     1_GWF-(1,22,8)
         76          3          3       98.751163                     1_GWF-(3,23,8)       5982.4398                     1_GWF-(4,23,8)
         77          3          4       16.082939                     1_GWF-(1,22,8)       1733.9287                     1_GWF-(4,23,8)
         78          3          5      -6.9059453                     1_GWF-(3,23,8)       371.60436                     1_GWF-(4,23,8)
         79          3          6      -1.1727243                     1_GWF-(3,23,8)      -264.92950                     2_GWF-(2,55,6)
         80          3          7      -1.0899364                     2_GWF-(1,43,4)      -303.52430                     1_GWF-(5,23,8)
         81          3          8      0.66421063                     1_GWF-(1,22,8)      -326.88253                     1_GWF-(5,23,8)
         82          3          9     -0.11263881                     1_GWF-(1,22,8)      -325.75826                     1_GWF-(5,23,8)
         83          3         10      0.44867105                     2_GWF-(1,49,5)      -314.57652                     1_GWF-(5,23,8)
         84          3         11       1.6691582                     2_GWF-(1,49,5)      -393.26217                     2_GWF-(2,55,6)
         85          3         12       3.9044132                     2_GWF-(1,49,5)      -625.32761                     2_GWF-(2,55,6)
         86          3         13      -22.224235                     2_GWF-(1,49,5)       924.43487                    2_GWF-(1,17,11)
         87          3         14       10.057447                     2_GWF-(1,49,5)      -359.76208                     1_GWF-(5,23,8)
         88          3         15       1.1075396                     2_GWF-(1,49,5)      -388.91512                     1_GWF-(5,23,8)
         89          3         16     -0.81201423                     1_GWF-(3,23,8)      -534.63682                     1_GWF-(5,23,8)
         90          3         17      0.55851355                    2_GWF-(1,73,44)      -557.98546                     1_GWF-(5,23,8)
         91          3         18      0.83502653                     1_GWF-(3,23,8)      -521.59118                     1_GWF-(5,23,8)
         92          3         19  5.97078725E-02                     1_GWF-(1,22,8)      -518.56362                     1_GWF-(5,23,8)
         93          3         20      0.22712398                     1_GWF-(4,24,8)      -565.44641                     1_GWF-(5,23,8)
         94          3         21      0.21732149                     1_GWF-(3,23,8)      -576.51735                     1_GWF-(5,23,8)
         95          3         22     -0.11303495                    2_GWF-(1,72,44)      -585.05447                     1_GWF-(5,23,8)
         96          3         23  9.03472234E-02                     1_GWF-(1,22,8)      -587.67710                     1_GWF-(5,23,8)
         97          3         24      0.10283652                     1_GWF-(1,22,8)      -551.55163                     1_GWF-(5,23,8)
         98          3         25      0.67736450                     1_GWF-(4,24,8)      -734.02252                     1_GWF-(5,23,8)
         99          3         26     -0.34871717                     1_GWF-(4,24,8)      -660.40842                     1_GWF-(5,23,8)
        100          3         27 -5.18684422E-02                    2_GWF-(1,73,44)      -666.71704                     1_GWF-(5,23,8)
        101          3         28     -0.24336254                     1_GWF-(4,24,8)      -608.51113                     1_GWF-(5,23,8)
        102          3         29  5.69955372E-02                    2_GWF-(2,72,45)      -620.57609                     1_GWF-(5,23,8)
        103          3         30      0.15596359                     1_GWF-(4,24,8)      -661.93541                     1_GWF-(5,23,8)
        104          3         31       1.0903533                     1_GWF-(4,24,8)      -957.05374                     1_GWF-(5,23,8)
        105          3         32      -6.6551264                     1_GWF-(4,24,8)       867.58564                     1_GWF-(5,23,8)
        106          3         33       1.3180572                     1_GWF-(4,24,8)       518.07851                     1_GWF-(5,23,8)
        107          3         34       3.7308715                     1_GWF-(4,24,8)      -513.20220                     1_GWF-(5,23,8)
        108          3         35      -1.7131451                     1_GWF-(4,24,8)       100.82294                     1_GWF-(4,24,8)
        109          3         36      0.30846223                    2_GWF-(1,73,44)       128.69699                     1_GWF-(4,24,8)
        110          3         37     -0.67767887                    2_GWF-(1,48,13)       187.71769                     1_GWF-(4,24,8)
        111          3         38      0.19475344                    2_GWF-(1,73,44)       187.83498                     1_GWF-(4,24,8)
        112          3         39 -9.79090716E-02                    2_GWF-(1,73,44)       192.08912                     1_GWF-(4,24,8)
        113          3         40      0.35412105                     1_GWF-(4,23,9)      -231.06551                     1_GWF-(5,23,8)
        114          3         41      -13.414435                     1_GWF-(4,23,9)       2937.9434                     1_GWF-(5,23,8)
        115          3         42       11.327215                     1_GWF-(4,23,9)      -295.17151                     1_GWF-(4,23,9)
        116          3         43 -5.42936229E-02                     1_GWF-(4,23,9)      -302.43678                     1_GWF-(4,23,9)
        117          3         44      0.38820358                     1_GWF-(4,23,9)      -249.97945                     1_GWF-(4,23,9)
        118          3         45 -6.16749065E-02                     1_GWF-(4,23,9)      -258.36151                     1_GWF-(4,23,9)
        119          3         46 -7.92867350E-02                     1_GWF-(4,23,9)      -269.26704                     1_GWF-(4,23,9)
        120          3         47      0.10183820                     1_GWF-(4,24,8)      -260.67268                     1_GWF-(4,23,9)
        121          3         48      0.63856295                     1_GWF-(4,23,9)      -176.81535                     1_GWF-(4,23,9)
        122          3         49  8.80356633E-02                    2_GWF-(3,72,78)      -185.89566                     1_GWF-(4,23,9)
        123          3         50      0.27780425                     1_GWF-(4,23,9)      -151.37758                     1_GWF-(4,23,9)
        124          3         51     -0.17218796                     1_GWF-(4,23,9)      -172.73328                     1_GWF-(4,23,9)
        125          3         52     -0.13513449                     1_GWF-(4,23,9)      -189.70155                     1_GWF-(4,23,9)
        126          3         53      -1.4288287                     1_GWF-(4,23,9)      -372.08129                     1_GWF-(4,23,9)
        127          3         54       2.3541845                     1_GWF-(4,23,9)      -71.631149                     1_GWF-(4,23,9)
        128          3         55     -0.33314750                     1_GWF-(4,23,9)      -114.14536                     1_GWF-(4,23,9)
        129          3         56     -0.31161608                     1_GWF-(4,23,9)      -153.83655                     1_GWF-(4,23,9)
        130          3         57      0.10194229                     1_GWF-(4,23,9)      -140.75770                     1_GWF-(4,23,9)
        131          3         58  5.98547267E-02                     1_GWF-(4,23,9)      -132.94157                     1_GWF-(4,23,9)
        132          3         59  1.41318466E-02                    2_GWF-(3,72,78)      -134.45821                     1_GWF-(4,23,9)
        133          3         60  2.78309994E-03                     1_GWF-(4,23,9)      -134.08993                     1_GWF-(4,23,9)
        134          3         61 -5.41818937E-02                     1_GWF-(4,23,9)      -141.21000                     1_GWF-(4,23,9)
        135          3         62 -5.26005351E-02                     1_GWF-(4,23,9)      -148.23518                     1_GWF-(4,23,9)
        136          3         63 -2.83844330E-02                     1_GWF-(4,23,9)      -151.85306                     1_GWF-(4,23,9)
        137          3         64 -8.97306594E-03                     1_GWF-(4,23,9)      -153.04329                     1_GWF-(4,23,9)
        138          3         65     -0.23603009                     1_GWF-(4,23,9)      -184.14301                     1_GWF-(4,23,9)
        139          3         66      0.32137004                     1_GWF-(4,23,9)      -141.76655                     1_GWF-(4,23,9)
        140          3         67     -0.45096274                     1_GWF-(4,23,9)      -201.10904                     1_GWF-(4,23,9)
        141          3         68  9.93249406E-02                     1_GWF-(4,23,9)      -187.96469                     1_GWF-(4,23,9)
        142          3         69       7.6184742                     1_GWF-(4,23,9)       810.09342                     1_GWF-(4,23,9)
        143          3         70      -6.1141917                     1_GWF-(4,23,9)      -24.197900                    2_GWF-(2,50,13)
        144          3         71     -0.41592133                     1_GWF-(4,23,9)      -45.055115                     1_GWF-(4,23,9)
        145          3         72      0.57122333                     1_GWF-(4,23,9)       29.704060                     1_GWF-(4,23,9)
        146          3         73     -0.36281228                     1_GWF-(4,23,9)      -23.839144                    2_GWF-(2,50,13)
        147          3         74  2.02497225E-02                     1_GWF-(4,23,9)      -23.881197                    2_GWF-(2,50,13)
        148          3         75      0.22106543                    2_GWF-(1,50,13)      -38.186526                     1_GWF-(4,23,9)
        149          3         76  2.08136125E-02                    2_GWF-(1,73,44)      -39.329556                     1_GWF-(4,23,9)
        150          3         77 -2.80672468E-03                     1_GWF-(4,23,9)      -39.691688                     1_GWF-(4,23,9)
        151          3         78 -3.15031579E-02                     1_GWF-(4,23,9)      -43.784881                     1_GWF-(4,23,9)
        152          3         79 -1.18327930E-02                     1_GWF-(4,23,9)      -45.323172                     1_GWF-(4,23,9)
        153          3         80 -2.94106163E-03                    2_GWF-(1,73,44)      -45.473297                     1_GWF-(4,23,9)
        154          3         81 -8.09773774E-02                     1_GWF-(4,23,9)      -55.881066                     1_GWF-(4,23,9)
        155          3         82  8.84695046E-02                     1_GWF-(4,23,9)      -44.570298                     1_GWF-(4,23,9)
        156          3         83  2.37221274E-02                     1_GWF-(4,23,9)      -41.510206                     1_GWF-(4,23,9)
        157          3         84     -0.58274275                     1_GWF-(4,23,9)      -117.06052                     1_GWF-(4,23,9)
        158          3         85      0.69319489                     1_GWF-(4,23,9)      -27.172879                     1_GWF-(4,23,9)
        159          3         86      0.18512823                     1_GWF-(4,23,9)       5.4188104                     2_GWF-(2,48,8)
        160          3         87 -6.30437285E-02                     1_GWF-(4,23,9)      -11.307743                     1_GWF-(4,23,9)
        161          3         88 -1.37609720E-02                     1_GWF-(4,23,9)      -13.106875                     1_GWF-(4,23,9)
        162          3         89 -9.99192312E-04                     1_GWF-(4,23,9)      -13.242736                     1_GWF-(4,23,9)
        163          3         90 -1.88231519E-03                    2_GWF-(1,73,44)      -13.415908                     1_GWF-(4,23,9)
        164          3         91  3.25868594E-03                     2_GWF-(1,48,8)      -13.735852                     1_GWF-(4,23,9)
        165          3         92 -8.45882274E-03                     1_GWF-(4,23,9)      -14.837339                     1_GWF-(4,23,9)
        166          3         93 -3.68995631E-02                     1_GWF-(4,23,9)      -19.664636                     1_GWF-(4,23,9)
        167          3         94      0.67206243                     1_GWF-(4,23,9)       68.144766                     1_GWF-(4,23,9)
        168          3         95     -0.46800375                     1_GWF-(4,23,9)       7.0009806                     1_GWF-(4,23,9)
        169          3         96 -1.03532413E-02                     1_GWF-(4,23,9)       5.6422507                     1_GWF-(4,23,9)
        170          3         97 -1.73796188E-02                     1_GWF-(4,23,9)       3.3775817                     1_GWF-(4,23,9)
        171          3         98  4.70717222E-03                     1_GWF-(4,23,9)       3.9893272                     1_GWF-(4,23,9)
        172          3         99 -1.88702925E-02                     1_GWF-(4,23,9)       1.5247569                     1_GWF-(4,23,9)
        173          3        100 -7.54500683E-03                     1_GWF-(4,23,9)      -1.1687071                    2_GWF-(2,52,11)
        174          4          1      -3.5177896                     2_GWF-(2,55,6)      -717.19154                    1_GWF-(3,16,22)
        175          4          2      -5.6560659                    2_GWF-(2,12,46)      -1006.5685                     2_GWF-(2,9,46)
        176          4          3       7.6189356                    2_GWF-(1,12,46)      -425.88331                     2_GWF-(2,9,46)
        177          4          4      -1.8131570                    2_GWF-(1,12,46)      -194.44416                     2_GWF-(2,9,46)
        178          4          5     -0.68015399                     2_GWF-(1,58,9)      -116.92531                     2_GWF-(2,9,46)
        179          4          6     -0.53770771                     2_GWF-(2,7,47)       82.329376                    2_GWF-(4,13,49)
        180          4          7     -0.44350282                     2_GWF-(2,58,9)       67.697483                    2_GWF-(4,13,49)
        181          4          8     -0.10631572                    2_GWF-(1,51,85)       57.157524                    2_GWF-(4,13,49)
        182          4          9 -3.21985901E-02                    2_GWF-(2,12,46)       59.317039                    2_GWF-(4,13,49)
        183          4         10     -0.88823847                     2_GWF-(2,58,9)       46.530256                    1_GWF-(3,16,22)
        184          4         11      -1.1456361                     2_GWF-(2,58,9)      -20.334782                    2_GWF-(4,73,73)
        185          4         12     -0.98855931                     2_GWF-(2,65,5)       29.830694                    1_GWF-(3,16,22)
        186          4         13     -0.55526203                     2_GWF-(2,65,5)       24.256896                    1_GWF-(3,16,22)
        187          4         14 -6.56358419E-02                     2_GWF-(2,9,46)       18.347449                    1_GWF-(3,16,22)
        188          4         15     -0.29349023                    2_GWF-(5,26,21)       33.192432                    1_GWF-(3,16,22)
        189          4         16     -0.16108489                    2_GWF-(5,30,24)      -15.660462                    2_GWF-(4,74,71)
        190          4         17     -0.18304409                    2_GWF-(5,34,30)       16.390308                    1_GWF-(3,16,22)
        191          4         18     -0.15085871                    2_GWF-(5,34,30)      -12.152486                    2_GWF-(4,74,71)
        192          4         19  2.56669320E-02                     2_GWF-(2,7,47)      -12.086586                    2_GWF-(4,74,71)
        193          4         20 -2.02340224E-02                    2_GWF-(2,12,46)      -12.018409                    2_GWF-(4,74,71)
        194          4         21     -0.29517206                    2_GWF-(5,49,37)      -14.450630                    1_GWF-(3,16,22)
        195          4         22 -6.44146133E-02                    2_GWF-(5,57,38)       9.5245483                    2_GWF-(4,75,76)
        196          4         23  6.34355397E-02                    2_GWF-(4,75,78)       9.3709355                    2_GWF-(4,75,76)
        197          4         24 -2.27468404E-02                    2_GWF-(4,75,72)       9.3097785                    2_GWF-(4,75,76)
        198          4         25 -4.94696490E-02                    2_GWF-(4,75,72)       9.1624623                    2_GWF-(4,75,76)
        199          4         26 -1.52853868E-02                    2_GWF-(2,12,46)       9.1615076                    2_GWF-(4,75,76)
        200          4         27     -0.14287760                    2_GWF-(4,75,72)       8.6293506                    2_GWF-(4,75,76)
        201          4         28  1.04759085E-02                    2_GWF-(4,75,72)       8.6753917                    2_GWF-(4,75,76)
        202          4         29 -6.02572379E-02                    2_GWF-(4,75,72)       8.4068923                    2_GWF-(4,75,76)
        203          4         30 -8.47209977E-02                    2_GWF-(4,75,72)       8.0007925                    2_GWF-(4,75,76)
        204          4         31 -5.88001734E-02                    2_GWF-(4,75,72)       7.7149433                    2_GWF-(4,75,76)
        205          4         32 -4.11614834E-02                    2_GWF-(4,75,72)       7.5084489                    2_GWF-(4,75,76)
        206          4         33     -0.12150153                    2_GWF-(4,75,72)       6.8609238                    2_GWF-(4,75,76)
        207          4         34  1.95038008E-03                     2_GWF-(2,7,47)       6.8679343                    2_GWF-(4,75,76)
        208          4         35 -9.96538329E-02                    2_GWF-(4,75,76)       6.2910568                    2_GWF-(4,75,76)
        209          4         36 -4.12701669E-02                    2_GWF-(4,75,76)       6.0515675                    2_GWF-(4,75,76)
        210          4         37 -9.57511384E-02                    2_GWF-(4,75,76)       5.4951657                    2_GWF-(4,75,76)
        211          4         38  3.00823037E-02                    2_GWF-(4,75,72)       5.4370053                    2_GWF-(4,75,76)
        212          4         39 -3.69514152E-02                    2_GWF-(4,75,76)       5.2156704                    2_GWF-(4,75,76)
        213          4         40 -4.43093033E-03                    2_GWF-(4,75,76)       5.1876452                    2_GWF-(4,75,76)
        214          4         41 -4.49665491E-02                    2_GWF-(4,75,76)       4.9147385                    2_GWF-(4,75,76)
        215          4         42     -0.25960304                    2_GWF-(4,75,76)       3.3377833                    2_GWF-(4,75,76)
        216          4         43      0.16075235                    2_GWF-(4,75,76)       4.3141232                    2_GWF-(4,75,76)
        217          4         44     -0.13427770                    2_GWF-(4,75,76)       3.4978253                    2_GWF-(4,75,76)
        218          4         45      -2.4288193                    2_GWF-(4,75,76)      -11.259913                    2_GWF-(4,75,76)
        219          4         46       3.9489267                    2_GWF-(4,75,76)       12.725059                    2_GWF-(4,75,76)
        220          4         47     -0.27897723                    2_GWF-(4,75,76)       11.026280                    2_GWF-(4,75,76)
        221          4         48 -3.33508064E-03                    2_GWF-(4,75,76)       11.006091                    2_GWF-(4,75,76)
        222          4         49 -4.51774331E-02                    2_GWF-(4,75,76)       10.732538                    2_GWF-(4,75,76)
        223          4         50 -1.48265151E-03                    2_GWF-(2,12,46)       10.735952                    2_GWF-(4,75,76)
        224          4         51     -0.59415227                    2_GWF-(4,75,76)       7.1347910                    2_GWF-(4,75,76)
        225          4         52     -0.38338058                    2_GWF-(4,75,76)       4.8112690                    2_GWF-(4,75,76)
        226          4         53     -0.57445749                    2_GWF-(4,75,76)       1.3290997                    2_GWF-(4,75,76)
        227          4         54     -0.25520287                    2_GWF-(4,75,76)       1.1846725                    2_GWF-(4,75,74)
        228          4         55 -3.78669528E-03                    2_GWF-(4,75,76)       1.1870349                    2_GWF-(4,75,74)
        229          4         56  2.15335200E-02                    2_GWF-(4,75,72)       1.0929247                    2_GWF-(4,75,74)
        230          4         57 -2.49036432E-02                    2_GWF-(4,75,76)       1.0856549                    2_GWF-(4,75,74)
        231          4         58  4.06600625E-03                    2_GWF-(4,75,72)       1.0606551                    2_GWF-(4,75,74)
        232          4         59 -6.99289387E-03                    2_GWF-(4,75,72)       1.0894760                    2_GWF-(4,75,74)
        233          4         60  1.32314799E-02                    2_GWF-(4,75,72)       1.0349667                    2_GWF-(4,75,74)
        234          4         61  1.29629522E-02                    2_GWF-(4,75,72)      0.98117935                    2_GWF-(4,75,74)
        235          4         62  2.54094348E-02                    2_GWF-(4,75,72)      0.85097755                    2_GWF-(4,75,74)
        236          4         63 -6.58874925E-03                    2_GWF-(4,75,76)      0.86794405                    2_GWF-(4,75,74)
        237          4         64 -2.51029270E-03                    2_GWF-(4,75,74)      0.84995173                    2_GWF-(4,75,74)
        238          4         65 -2.98744129E-03                    2_GWF-(4,75,74)      0.82854394                    2_GWF-(4,75,74)
        239          4         66 -6.25218730E-03                    2_GWF-(4,75,74)      0.78377935                    2_GWF-(4,75,74)
        240          4         67 -1.64044979E-03                    2_GWF-(4,75,74)      0.77203478                    2_GWF-(4,75,74)
        241          4         68 -1.36803223E-02                    2_GWF-(4,75,74)      0.67417030                    2_GWF-(4,75,74)
        242          4         69  1.86357937E-03                    2_GWF-(4,75,74)      0.68750700                    2_GWF-(4,75,74)
        243          4         70 -1.07317210E-02                    2_GWF-(4,75,74)      0.61071998                    2_GWF-(4,75,74)
        244          5          1       13.427339                     2_GWF-(3,8,22)       3482.0005                     2_GWF-(3,8,22)
        245          5          2      -13.558923                     2_GWF-(3,8,22)      -393.89602                    1_GWF-(3,16,22)
        246          5          3      -2.8086981                    2_GWF-(2,47,85)      -504.03452                     2_GWF-(3,8,21)
        247          5          4       2.1953376                     2_GWF-(2,7,20)      -132.46000                     2_GWF-(3,8,23)
        248          5          5     -0.34780674                     2_GWF-(3,7,19)      -52.704037                    2_GWF-(3,33,11)
        249          5          6      0.33068761                    2_GWF-(2,33,11)       36.103437                     2_GWF-(4,55,6)
        250          5          7     -0.23406946                    2_GWF-(2,33,11)       26.157664                    2_GWF-(4,36,12)
        251          5          8     -0.12943731                     2_GWF-(2,8,21)      -14.616440                    2_GWF-(4,69,75)
        252          5          9      0.22943872                    2_GWF-(2,33,11)      -25.822728                     2_GWF-(3,8,23)
        253          5         10     -0.36362184                    2_GWF-(2,33,11)      -15.510000                    2_GWF-(4,69,75)
        254          5         11      0.10851045                    2_GWF-(2,33,11)       23.062274                    2_GWF-(3,33,11)
        255          5         12     -0.25199922                    2_GWF-(2,33,11)      -15.685580                    2_GWF-(4,69,75)
        256          5         13     -0.67590391                    2_GWF-(2,33,11)      -45.751792                    2_GWF-(3,33,11)
        257          5         14      0.30555872                    2_GWF-(2,33,11)      -14.882563                    2_GWF-(4,69,75)
        258          5         15     -0.86115183                    2_GWF-(2,33,11)       22.097463                    2_GWF-(4,74,22)
        259          5         16  8.48849533E-02                     2_GWF-(2,8,21)       21.397911                    2_GWF-(4,74,22)
        260          5         17      -1.0748198                    2_GWF-(2,33,11)       30.802266                    2_GWF-(4,74,22)
        261          5         18      0.39904941                    2_GWF-(2,33,11)       21.901973                    2_GWF-(4,74,22)
        262          5         19  7.97153623E-02                    2_GWF-(2,33,11)       21.942660                    2_GWF-(4,74,22)
        263          5         20      -1.8441292                    2_GWF-(2,33,11)      -46.582646                     2_GWF-(3,8,21)
        264          5         21       1.4898949                    2_GWF-(2,33,11)       19.883997                    2_GWF-(4,74,22)
        265          5         22     -0.13017031                    2_GWF-(4,74,22)       16.517636                    2_GWF-(4,74,22)
        266          5         23 -9.32026205E-02                    2_GWF-(2,33,11)       14.666368                    2_GWF-(4,74,22)
        267          5         24 -1.36199340E-02                    2_GWF-(4,74,22)       14.018922                    2_GWF-(4,74,22)
        268          5         25      0.22357289                    2_GWF-(4,74,74)       7.3817000                    2_GWF-(4,69,73)
        269          5         26     -0.11605742                    2_GWF-(4,74,74)       10.130846                    2_GWF-(4,69,73)
        270          5         27      0.22753441                    2_GWF-(4,74,74)      -6.8660801                    2_GWF-(3,33,11)
        271          5         28  4.22533016E-02                    2_GWF-(2,33,11)       5.5015606                    2_GWF-(4,69,73)
        272          5         29  3.16107150E-03                    2_GWF-(2,33,11)       5.4870406                    2_GWF-(4,69,73)
        273          5         30  1.67052595E-02                    2_GWF-(4,74,74)       5.2424835                    2_GWF-(4,69,73)
        274          5         31  2.32995447E-02                    2_GWF-(2,33,11)       5.0753514                    2_GWF-(4,69,73)
        275          5         32 -6.24141524E-03                    2_GWF-(2,33,11)       5.0733563                    2_GWF-(4,69,73)
        276          5         33  2.72460567E-02                    2_GWF-(4,74,74)       4.6327161                    2_GWF-(4,69,73)
        277          5         34 -9.19506432E-03                    2_GWF-(2,33,11)       4.4866411                    2_GWF-(4,69,73)
        278          5         35  9.56661473E-04                    2_GWF-(4,74,74)       4.4702612                    2_GWF-(4,69,73)
        279          5         36  3.60407765E-02                    2_GWF-(4,74,74)       3.8524350                    2_GWF-(4,69,73)
        280          5         37  2.72756679E-03                    2_GWF-(2,33,11)       3.8253401                    2_GWF-(4,69,73)
        281          5         38       1.9221109                    2_GWF-(4,74,74)       34.708948                    2_GWF-(4,70,73)
        282          5         39     -0.42349676                    2_GWF-(4,74,74)       26.160629                    2_GWF-(4,70,73)
        283          5         40      -1.6266633                    2_GWF-(4,74,74)       6.0225420                    2_GWF-(4,69,73)
        284          5         41  2.22479971E-02                    2_GWF-(2,33,11)       6.0251589                    2_GWF-(4,69,73)
        285          5         42 -9.38239325E-03                    2_GWF-(2,33,11)       6.0386227                    2_GWF-(4,69,73)
        286          5         43  4.04618306E-02                    2_GWF-(4,74,74)       5.2540158                    2_GWF-(4,69,73)
        287          5         44  7.91251017E-04                    2_GWF-(4,74,74)       5.2425583                    2_GWF-(4,69,73)
        288          5         45  2.60796631E-02                    2_GWF-(4,74,74)       4.8715394                    2_GWF-(4,69,73)
        289          5         46 -1.20738089E-02                    2_GWF-(2,33,11)       4.8716876                    2_GWF-(4,69,73)
        290          5         47  9.89730858E-02                    2_GWF-(4,74,74)       3.4399202                    2_GWF-(4,69,73)
        291          5         48 -4.15447073E-03                    2_GWF-(4,74,74)       3.4997607                    2_GWF-(4,69,73)
        292          5         49      0.15095526                    2_GWF-(4,74,74)      -2.0413561                    2_GWF-(4,74,74)
        293          5         50 -3.88066601E-02                    2_GWF-(4,74,74)      -2.3148957                    2_GWF-(4,74,74)
        294          5         51      0.16492785                    2_GWF-(4,74,74)      -1.1524562                    2_GWF-(4,74,74)
        295          5         52  1.95374104E-03                    2_GWF-(4,69,73)      -1.1596480                    2_GWF-(4,74,74)
        296          5         53  3.52697183E-02                    2_GWF-(4,74,74)     -0.91185451                    2_GWF-(4,74,74)
        297          5         54 -7.45668729E-03                    2_GWF-(4,74,74)     -0.96420852                    2_GWF-(4,74,74)
        298          5         55  3.94605876E-02                    2_GWF-(4,74,74)      -1.0228916                    2_GWF-(4,69,73)
        299          5         56  4.43720549E-02                    2_GWF-(4,74,74)      -1.4905031                    2_GWF-(4,69,73)
        300          5         57 -1.97071231E-02                    2_GWF-(4,74,74)      -1.2714527                    2_GWF-(4,69,73)
        301          5         58     -0.12895212                    2_GWF-(4,74,74)      -1.4120468                    2_GWF-(4,74,74)
        302          5         59      0.14397201                    2_GWF-(4,74,74)      -1.2022554                    2_GWF-(4,69,73)
        303          5         60  1.92565451E-02                    2_GWF-(4,74,74)      -1.2876265                    2_GWF-(4,69,73)
        304          5         61 -2.78594953E-03                    2_GWF-(4,74,74)      -1.2669568                    2_GWF-(4,69,73)
        305          5         62 -1.82278271E-04                    2_GWF-(2,33,11)      -1.2668992                    2_GWF-(4,69,73)
        306          5         63  1.24689151E-02                    2_GWF-(4,74,74)      -1.1424949                    2_GWF-(4,69,73)
        307          5         64  1.30325279E-02                    2_GWF-(4,74,74)      -1.1130021                    2_GWF-(4,69,73)
        308          5         65  6.05253561E-02                    2_GWF-(4,74,74)     -0.81972067                    2_GWF-(4,69,73)
        309          5         66  9.64017074E-03                    2_GWF-(4,74,74)     -0.77285732                    2_GWF-(4,69,73)
        310          5         67 -5.52503431E-02                    2_GWF-(4,74,74)     -0.99213492                    2_GWF-(4,69,73)
        311          5         68  1.81117845E-02                    2_GWF-(4,74,74)     -0.82234862                    2_GWF-(4,69,73)
        312          5         69 -9.14326163E-03                    2_GWF-(4,74,74)     -0.80509866                    2_GWF-(4,69,73)
        313          5         70  1.42092553E-02                    2_GWF-(4,74,74)     -0.62567519                    2_GWF-(4,69,73)
        314          5         71 -8.57192260E-03                    2_GWF-(4,74,74)     -0.72525475                    2_GWF-(4,69,73)
        315          5         72 -2.86301089E-03                    2_GWF-(4,75,74)     -0.67910103                    2_GWF-(4,69,73)
        316          5         73  1.55232982E-03                    2_GWF-(4,75,73)     -0.64988569                    2_GWF-(4,69,73)
        317          5         74  1.45833121E-03                    2_GWF-(4,75,73)     -0.62228201                    2_GWF-(4,69,73)
        318          5         75 -5.74361337E-05                    2_GWF-(2,33,11)     -0.62283787                    2_GWF-(4,69,73)
        319          6          1      -42.867007                    2_GWF-(2,16,22)       7738.2915                    2_GWF-(4,33,11)
        320          6          2       42.795194                    2_GWF-(2,16,22)       1093.6119                    2_GWF-(4,33,11)
        321          6          3     -0.35160928                    2_GWF-(4,33,11)       858.32135                    2_GWF-(4,33,11)
        322          6          4      -1.1455159                    2_GWF-(4,33,11)       76.239389                    2_GWF-(4,33,11)
        323          6          5     -0.31591123                    2_GWF-(2,46,85)      -28.112469                    2_GWF-(4,73,71)
        324          6          6     -0.19321961                    2_GWF-(2,16,22)      -24.306285                    2_GWF-(4,34,11)
        325          6          7      0.11343230                    2_GWF-(2,16,22)      -21.628892                    2_GWF-(4,73,71)
        326          6          8      0.59494717                    2_GWF-(2,16,22)       72.117064                    2_GWF-(2,16,22)
        327          6          9      0.63857195                    2_GWF-(2,15,23)       92.191077                    2_GWF-(2,16,22)
        328          6         10     -0.96129749                    2_GWF-(2,16,22)      -24.725680                    2_GWF-(4,33,11)
        329          6         11     -0.10451425                    2_GWF-(2,16,22)      -19.688916                    2_GWF-(4,33,11)
        330          6         12     -0.20718252                    2_GWF-(2,16,22)       13.983372                    2_GWF-(4,17,27)
        331          6         13 -7.95836640E-02                    2_GWF-(2,16,22)       15.964907                    2_GWF-(4,18,24)
        332          6         14     -0.30017098                    2_GWF-(4,18,37)       12.060834                    2_GWF-(4,18,26)
        333          6         15 -2.90601495E-02                    2_GWF-(2,16,22)      -12.037243                    2_GWF-(4,74,70)
        334          6         16  8.26958525E-02                    2_GWF-(2,16,22)      -11.915120                    2_GWF-(4,74,70)
        335          6         17     -0.36953650                    2_GWF-(4,75,22)       16.781829                    2_GWF-(4,73,71)
        336          6         18 -6.64782589E-02                    2_GWF-(2,16,22)       17.067583                    2_GWF-(4,73,71)
        337          6         19     -0.29075406                    2_GWF-(4,75,22)       17.160394                    2_GWF-(2,16,22)
        338          6         20     -0.15661703                    2_GWF-(2,16,22)      -14.404003                    2_GWF-(4,74,70)
        339          6         21     -0.29723368                    2_GWF-(4,75,22)      -8.8809791                    2_GWF-(4,74,70)
        340          6         22 -6.79889765E-02                    2_GWF-(4,75,22)      -8.4823370                    2_GWF-(4,74,70)
        341          6         23 -9.56196203E-02                    2_GWF-(4,75,22)      -7.2932234                    2_GWF-(4,74,70)
        342          6         24      0.25334178                    2_GWF-(4,75,22)      -19.450957                    2_GWF-(4,33,11)
        343          6         25     -0.33266492                    2_GWF-(4,75,22)       5.6817809                    2_GWF-(4,74,71)
        344          6         26 -3.01925054E-02                    2_GWF-(4,75,22)       5.3116149                    2_GWF-(4,74,71)
        345          6         27 -8.76221845E-03                    2_GWF-(4,75,22)       5.1879423                    2_GWF-(4,74,71)
        346          6         28 -1.56409450E-02                    2_GWF-(4,75,22)       5.0877344                    2_GWF-(4,73,72)
        347          6         29 -7.25707370E-04                    2_GWF-(4,75,22)       5.0835172                    2_GWF-(4,73,72)
        348          6         30 -2.67795497E-02                    2_GWF-(4,17,38)       4.8468862                    2_GWF-(4,73,72)
        349          6         31 -2.44554615E-02                    2_GWF-(4,75,22)       4.6583087                    2_GWF-(4,73,72)
        350          6         32 -2.01372038E-02                    2_GWF-(4,75,22)       4.4833615                    2_GWF-(4,73,72)
        351          6         33 -8.66803045E-03                    2_GWF-(4,75,22)       4.4071167                    2_GWF-(4,73,72)
        352          6         34 -1.15748560E-03                    2_GWF-(4,75,22)       4.3963697                    2_GWF-(4,73,72)
        353          6         35 -3.57362478E-02                    2_GWF-(4,75,22)       4.0642625                    2_GWF-(4,73,72)
        354          6         36  2.38585928E-02                    2_GWF-(2,16,22)       3.7906362                    2_GWF-(4,73,72)
        355          6         37 -7.65175207E-02                    2_GWF-(4,75,22)      -5.9574651                    2_GWF-(2,16,22)
        356          6         38  5.33417326E-02                    2_GWF-(2,16,22)       3.4990783                    2_GWF-(4,73,72)
        357          6         39 -5.36211567E-03                    2_GWF-(2,16,22)       3.4467961                    2_GWF-(4,73,72)
        358          6         40 -4.30245546E-02                    2_GWF-(4,75,22)       3.0226301                    2_GWF-(4,73,72)
        359          6         41 -4.99224805E-02                    2_GWF-(4,75,22)       2.5241340                    2_GWF-(4,73,72)
        360          6         42 -3.95742408E-02                    2_GWF-(4,72,26)       2.1110923                    2_GWF-(4,73,72)
        361          6         43  3.31106591E-02                    2_GWF-(4,75,22)       2.4504341                    2_GWF-(4,73,72)
        362          6         44     -0.13765363                    2_GWF-(4,75,22)      -2.0830068                    2_GWF-(4,74,21)
        363          6         45  3.86206513E-03                    2_GWF-(2,16,22)      -2.1171227                    2_GWF-(4,74,21)
        364          6         46 -6.41720946E-02                    2_GWF-(4,73,72)      -2.5941510                    2_GWF-(4,74,21)
        365          6         47 -2.17525429E-02                    2_GWF-(4,73,72)      -2.7401850                    2_GWF-(4,74,21)
        366          6         48  6.14683250E-03                    2_GWF-(2,16,22)      -2.6982763                    2_GWF-(4,74,21)
        367          6         49 -1.63903963E-03                    2_GWF-(2,16,22)      -2.6745369                    2_GWF-(4,74,21)
        368          6         50      -1.2496757                    2_GWF-(4,17,38)       24.511965                    2_GWF-(4,74,70)
        369          6         51       1.3406173                    2_GWF-(4,17,38)      -2.1913323                    2_GWF-(2,16,22)
        370          6         52  1.65183233E-02                    2_GWF-(2,16,22)      -1.4096449                    2_GWF-(4,72,25)
        371          6         53  1.96958061E-03                    2_GWF-(2,16,22)      -1.4132049                    2_GWF-(4,72,25)
        372          6         54 -4.99805460E-02                    2_GWF-(4,75,22)       2.0640122                    2_GWF-(4,73,21)
        373          6         55     -0.17989909                    2_GWF-(4,75,22)       4.6723687                    2_GWF-(4,73,21)
        374          6         56      0.30595739                    2_GWF-(4,75,22)      -1.1360557                    2_GWF-(4,73,26)
        375          6         57  6.19016323E-03                    2_GWF-(4,75,22)      -1.1551253                    2_GWF-(4,73,26)
        376          6         58 -2.26182163E-02                    2_GWF-(4,73,72)      -1.0653766                    2_GWF-(4,73,26)
        377          6         59 -3.57562944E-03                    2_GWF-(4,73,72)      -1.0499795                    2_GWF-(4,73,26)
        378          6         60 -2.24910470E-03                    2_GWF-(4,72,26)      -1.0373549                    2_GWF-(4,73,26)
        379          6         61  3.58469310E-03                    2_GWF-(4,73,26)      -1.0151755                    2_GWF-(4,73,26)
        380          6         62 -1.45976422E-03                    2_GWF-(2,16,22)      -1.0152893                    2_GWF-(4,73,26)
        381          6         63  3.56241293E-03                    2_GWF-(4,73,26)     -0.99298421                    2_GWF-(4,73,26)
        382          6         64  1.41823705E-02                    2_GWF-(4,73,26)     -0.90532307                    2_GWF-(4,73,26)
        383          6         65  5.67156277E-03                    2_GWF-(4,17,38)     -0.89287101                    2_GWF-(4,73,26)
        384          6         66 -5.96192076E-03                    2_GWF-(4,73,26)     -0.92963101                    2_GWF-(4,73,26)
        385          6         67  2.53018473E-02                    2_GWF-(4,73,26)     -0.78897789                    2_GWF-(4,74,72)
        386          6         68  2.65817853E-02                    2_GWF-(4,73,26)     -0.68635217                    2_GWF-(4,74,72)
        387          6         69  7.00991637E-03                    2_GWF-(4,73,26)     -0.66103239                    2_GWF-(4,74,72)
        388          6         70  1.74503651E-02                    2_GWF-(4,73,26)     -0.59764402                    2_GWF-(4,74,72)
        389          6         71  1.10418973E-04                    2_GWF-(2,16,22)     -0.59721557                    2_GWF-(4,74,72)
        390          6         72 -3.91805554E-03                    2_GWF-(4,73,26)     -0.61180657                    2_GWF-(4,74,72)
        391          6         73  2.35349266E-02                    2_GWF-(4,74,22)     -0.47614749                    2_GWF-(4,74,72)
        392          6         74  4.91291143E-03                    2_GWF-(4,73,26)     -0.45318097                    2_GWF-(4,74,72)
        393          6         75  1.07448706E-04                    2_GWF-(4,73,26)     -0.45262061                    2_GWF-(4,74,72)
        394          6         76  2.66677262E-03                    2_GWF-(4,74,22)     -0.43700842                    2_GWF-(4,74,72)
        395          6         77  1.74973387E-04                    2_GWF-(2,15,23)     -0.43711098                    2_GWF-(4,74,72)
        396          6         78  2.98147057E-03                    2_GWF-(4,74,72)     -0.41809656                    2_GWF-(4,74,72)
        397          6         79 -2.41377919E-04                    2_GWF-(2,16,22)     -0.41939117                    2_GWF-(4,74,72)
        398          6         80 -2.73339341E-04                    2_GWF-(4,74,72)     -0.42113400                    2_GWF-(4,74,72)
        399          6         81  3.46108098E-03                    2_GWF-(4,74,72)     -0.39905652                    2_GWF-(4,74,72)
        400          6         82  8.49147867E-04                    2_GWF-(4,74,72)     -0.39363838                    2_GWF-(4,74,72)
        401          6         83  3.47656061E-03                    2_GWF-(4,74,72)     -0.37144723                    2_GWF-(4,74,72)
        402          6         84  5.40766429E-03                    2_GWF-(4,74,72)     -0.33693200                    2_GWF-(4,74,72)
        403          6         85  2.36668515E-04                    2_GWF-(2,16,22)     -0.33734660                    2_GWF-(4,74,72)
        404          6         86  1.34346534E-02                    2_GWF-(4,74,72)     -0.25949551                    2_GWF-(4,72,27)
        405          6         87  2.35891086E-02                    2_GWF-(4,74,72)     -0.21239937                    2_GWF-(4,72,27)
        406          6         88  6.45498099E-04                    2_GWF-(4,74,72)     -0.21111137                    2_GWF-(4,72,27)
        407          6         89 -1.45662533E-02                    2_GWF-(4,72,26)     -0.13554575                    2_GWF-(4,72,27)
        408          7          1      -1.1664650                    2_GWF-(4,69,72)       56.277951                    2_GWF-(2,36,30)
        409          7          2      0.76895876                    2_GWF-(4,69,72)       16.346520                    2_GWF-(2,56,35)
        410          7          3      0.34968887                    2_GWF-(4,69,72)       5.1863152                     1_GWF-(1,2,12)
        411          7          4 -6.38360308E-02                    2_GWF-(4,69,72)      -5.8224739                    2_GWF-(2,46,85)
        412          7          5  6.36655405E-02                    2_GWF-(4,69,72)       2.2753224                    1_GWF-(3,14,22)
        413          7          6  7.75677569E-02                    2_GWF-(4,69,72)       1.8985850                    1_GWF-(3,14,22)
        414          7          7 -9.94058013E-02                    2_GWF-(4,19,36)       1.1729098                    1_GWF-(5,22,12)
        415          7          8     -0.11282796                    2_GWF-(4,19,36)       1.1802938                    1_GWF-(2,10,23)
        416          7          9      -3.6613246                    2_GWF-(4,19,36)       25.279891                     1_GWF-(1,2,12)
        417          7         10       3.5982813                    2_GWF-(4,19,36)      0.66439310                    1_GWF-(2,10,23)
        418          7         11 -2.42901086E-02                    2_GWF-(2,72,42)      0.28714104                    1_GWF-(2,10,23)
        419          7         12 -7.05504141E-02                    2_GWF-(4,69,72)     -0.56714246                    2_GWF-(4,69,72)
[...]
 --------------------------------------------------------------------------------------------------------------------------




  WATER MOVER BUDGET FOR ENTIRE MODEL AT END OF TIME STEP    1, STRESS PERIOD  11
  ------------------------------------------------------------------------------

     CUMULATIVE WATER MOVER      L**3       RATES FOR THIS TIME STEP      L**3/T
     ------------------                 ------------------------

           IN:                                      IN:
           ---                                      ---
    PLSNT_LGR_INSET/ =      751164.9674      PLSNT_LGR_INSET/ =        2408.7361
    PLSNT_LGR_PARENT =           0.0000      PLSNT_LGR_PARENT =           0.0000

            TOTAL IN =      751164.9674              TOTAL IN =        2408.7361

          OUT:                                     OUT:
          ----                                     ----
    PLSNT_LGR_INSET/ =           0.0000      PLSNT_LGR_INSET/ =           0.0000
    PLSNT_LGR_PARENT =      751164.9674      PLSNT_LGR_PARENT =        2408.7361

           TOTAL OUT =      751164.9674             TOTAL OUT =        2408.7361

            IN - OUT =           0.0000              IN - OUT =           0.0000

 PERCENT DISCREPANCY =           0.00     PERCENT DISCREPANCY =           0.00

 
    Solving:  Stress period:    12    Time step:     1
 
1
 STRESS PERIOD NO. 12, LENGTH =   30.00000    
 ------------------------------------------
 NUMBER OF TIME STEPS = 1
 MULTIPLIER FOR DELT =     1.500
 #k i j head boundname

 OPENED .\external\plsnt_lgr_parent_chd_012.dat
 FILE TYPE:OPEN/CLOSE   UNIT 1172   STATUS:OLD                 
 FORMAT:FORMATTED              ACCESS:SEQUENTIAL          
 ACTION:READ                


 REUSING MVRS FROM LAST STRESS PERIOD
 INITIAL TIME STEP SIZE =   30.00000    

 SLN_1 OUTER ITERATION SUMMARY
 ----------------------------------------------------------------------------------------------------------
                                OUTER      INNER                    STEP   MAXIMUM CHANGE MODEL-(CELLID) OR
 OUTER ITERATION STEP       ITERATION  ITERATION  MAXIMUM CHANGE SUCCESS             MODEL-PACKAGE-(NUMBER)
 ----------------------------------------------------------------------------------------------------------
 Model                              1          8     -0.73513878                            1_GWF-(4,22,19)
 Model                              2          7  3.48427107E-02                            1_GWF-(5,21,16)
 Model                              3          4 -1.11855109E-02                            2_GWF-(1,46,85)
 Model                              4          3  4.22574451E-03       *                    2_GWF-(1,46,85)
 Package                            4                 -1.4565986                     2_GWF-SFR_0-(6)-inflow
 Model                              5          2 -1.09243643E-03       *                    2_GWF-(1,46,85)
 Package                            5                -0.18084586                     2_GWF-SFR_0-(6)-inflow
 Model                              6          2  1.49300715E-04       *                    2_GWF-(1,46,85)
 Package                            6            -2.32782598E-02                     2_GWF-SFR_0-(6)-inflow
 Model                              7          1 -2.51719601E-05       *                    2_GWF-(1,28,74)
 Package                            7             1.22211518E-02                     2_GWF-SFR_0-(4)-inflow
 Model                              8          1 -1.23279600E-05       *                    2_GWF-(1,28,74)
 Package                            8             4.58825112E-03       *             2_GWF-SFR_0-(4)-inflow
 ----------------------------------------------------------------------------------------------------------


 8 CALLS TO NUMERICAL SOLUTION IN TIME STEP 1 STRESS PERIOD 12
 28 TOTAL ITERATIONS

 SLN_1 INNER ITERATION SUMMARY
 --------------------------------------------------------------------------------------------------------------------------------------
      TOTAL      OUTER      INNER                                                            MAXIMUM                                   
  ITERATION  ITERATION  ITERATION  MAXIMUM CHANGE      MAXIMUM CHANGE MODEL-(CELLID)        RESIDUAL    MAXIMUM RESIDUAL MODEL-(CELLID)
 --------------------------------------------------------------------------------------------------------------------------------------
          1          1          1     -0.73784754                    1_GWF-(4,22,19)       20.962083                     1_GWF-(2,4,24)
          2          1          2  1.59275954E-02                    2_GWF-(4,74,49)      -14.183246                     1_GWF-(3,2,24)
          3          1          3 -1.96184412E-02                     2_GWF-(5,56,7)     -0.77675916                     1_GWF-(2,5,19)
          4          1          4 -5.52081199E-03                    2_GWF-(3,19,35)      0.71570471                    1_GWF-(2,11,22)
          5          1          5 -4.67576235E-03                    2_GWF-(1,19,35)     -0.15297117                     1_GWF-(2,5,19)
          6          1          6 -3.19923853E-03                    2_GWF-(1,19,35)      0.18816680                    1_GWF-(2,11,22)
          7          1          7 -5.15102481E-04                    2_GWF-(4,54,58)  4.00773956E-02                    1_GWF-(2,11,23)
          8          1          8 -5.72219509E-04                    2_GWF-(4,54,58)  3.91890293E-02                    1_GWF-(2,11,22)
          9          2          1  3.34879115E-02                    1_GWF-(5,21,16)      -1.8902069                    1_GWF-(5,23,15)
         10          2          2  2.47473475E-03                    2_GWF-(1,53,85)     -0.40979527                    1_GWF-(5,23,15)
         11          2          3  9.26629646E-04                    2_GWF-(5,73,54)     -0.11555384                    1_GWF-(5,22,15)
         12          2          4  3.40904522E-04                    2_GWF-(5,69,63) -5.34558600E-02                    1_GWF-(5,22,17)
         13          2          5  2.20790083E-04                    2_GWF-(4,62,65) -2.01545061E-02                    1_GWF-(5,22,17)
         14          2          6  1.06430582E-04                    2_GWF-(3,62,65)  7.25082777E-03                    1_GWF-(2,11,22)
         15          2          7 -5.64930188E-05                    2_GWF-(5,30,58)  8.31099875E-03                    1_GWF-(2,11,22)
         16          3          1 -1.23397154E-02                    2_GWF-(1,46,85)      0.28171468                    1_GWF-(3,15,22)
         17          3          2  1.05349677E-03                    2_GWF-(1,46,85)  5.38823434E-02                    1_GWF-(3,15,22)
         18          3          3  1.07496023E-04                    2_GWF-(4,75,52)  1.27370705E-02                    1_GWF-(2,11,22)
         19          3          4 -4.41114082E-05                    2_GWF-(5,37,45)  3.87871053E-03                    1_GWF-(2,11,23)
         20          4          1  4.50861327E-03                    2_GWF-(2,46,85)     -0.10404699                    1_GWF-(3,15,22)
         21          4          2 -2.45591644E-04                    2_GWF-(1,46,85) -1.89214294E-02                    1_GWF-(3,15,22)
         22          4          3 -3.72771165E-05                    2_GWF-(1,46,85)  4.48880765E-03                    1_GWF-(2,11,22)
         23          5          1 -1.13422548E-03                    2_GWF-(2,46,85)  2.55751839E-02                    1_GWF-(3,15,22)
         24          5          2 -5.20977021E-05                    2_GWF-(1,44,85)  5.10156015E-03                    1_GWF-(3,15,22)
         25          6          1  1.62187573E-04                    2_GWF-(1,46,85) -4.14533584E-03                    1_GWF-(3,15,22)
         26          6          2 -1.28868576E-05                    2_GWF-(2,46,85) -1.32855816E-03                    2_GWF-(1,28,74)
         27          7          1 -2.51719602E-05                    2_GWF-(1,28,74)  1.29749191E-03                    1_GWF-(2,11,22)
         28          8          1 -1.23279599E-05                    2_GWF-(1,28,74) -8.21671300E-04                    2_GWF-(1,28,74)
 --------------------------------------------------------------------------------------------------------------------------------------



 WATER MOVER PACKAGE (MVR) FLOW RATES   PERIOD     12   STEP        1
 --------------------------------------------------------------------------------------------------------------------------
                                               PROVIDER  AVAILABLE   PROVIDED                                     RECEIVER 
   NUMBER           PROVIDER LOCATION             ID        RATE       RATE            RECEIVER LOCATION             ID    
 --------------------------------------------------------------------------------------------------------------------------
     1            PLSNT_LGR_INSET/SFR_0           29      0.00       0.00           PLSNT_LGR_PARENT/SFR_0           13    
     2            PLSNT_LGR_INSET/SFR_0           41      2.395E+03  2.395E+03      PLSNT_LGR_PARENT/SFR_0           1     
 --------------------------------------------------------------------------------------------------------------------------




  WATER MOVER BUDGET FOR ENTIRE MODEL AT END OF TIME STEP    1, STRESS PERIOD  12
  ------------------------------------------------------------------------------

     CUMULATIVE WATER MOVER      L**3       RATES FOR THIS TIME STEP      L**3/T
     ------------------                 ------------------------

           IN:                                      IN:
           ---                                      ---
    PLSNT_LGR_INSET/ =      823024.2689      PLSNT_LGR_INSET/ =        2395.3100
    PLSNT_LGR_PARENT =           0.0000      PLSNT_LGR_PARENT =           0.0000

            TOTAL IN =      823024.2689              TOTAL IN =        2395.3100

          OUT:                                     OUT:
          ----                                     ----
    PLSNT_LGR_INSET/ =           0.0000      PLSNT_LGR_INSET/ =           0.0000
    PLSNT_LGR_PARENT =      823024.2689      PLSNT_LGR_PARENT =        2395.3100

           TOTAL OUT =      823024.2689             TOTAL OUT =        2395.3100

            IN - OUT =           0.0000              IN - OUT =           0.0000

 PERCENT DISCREPANCY =           0.00     PERCENT DISCREPANCY =           0.00

 
    Solving:  Stress period:    13    Time step:     1
 
1
 STRESS PERIOD NO. 13, LENGTH =   31.00000    
 ------------------------------------------
 NUMBER OF TIME STEPS = 1
 MULTIPLIER FOR DELT =     1.500
 #k i j head boundname

 REUSING MVRS FROM LAST STRESS PERIOD
 INITIAL TIME STEP SIZE =   31.00000    

 SLN_1 OUTER ITERATION SUMMARY
 ----------------------------------------------------------------------------------------------------------
                                OUTER      INNER                    STEP   MAXIMUM CHANGE MODEL-(CELLID) OR
 OUTER ITERATION STEP       ITERATION  ITERATION  MAXIMUM CHANGE SUCCESS             MODEL-PACKAGE-(NUMBER)
 ----------------------------------------------------------------------------------------------------------
 Model                              1          7     -0.20243449                            1_GWF-(4,22,19)
 Model                              2          7 -3.99595503E-02                              1_GWF-(1,7,2)
 Model                              3          4 -1.23748146E-02                            2_GWF-(1,46,85)
 Model                              4          3  5.30797052E-03       *                    2_GWF-(1,46,85)
 Package                            4                 -1.4744400                     2_GWF-SFR_0-(6)-inflow
 Model                              5          2 -1.62987197E-03       *                    2_GWF-(1,46,85)
 Package                            5                -0.18164373                     2_GWF-SFR_0-(6)-inflow
 Model                              6          2  2.92362795E-04       *                    2_GWF-(1,46,85)
 Package                            6            -2.42869702E-02                     2_GWF-SFR_0-(6)-inflow
 Model                              7          1 -2.59525013E-05       *                    2_GWF-(1,46,85)
 Package                            7             7.52539474E-03       *             2_GWF-SFR_0-(4)-inflow
 ----------------------------------------------------------------------------------------------------------


 7 CALLS TO NUMERICAL SOLUTION IN TIME STEP 1 STRESS PERIOD 13
 26 TOTAL ITERATIONS

 SLN_1 INNER ITERATION SUMMARY
 --------------------------------------------------------------------------------------------------------------------------------------
      TOTAL      OUTER      INNER                                                            MAXIMUM                                   
  ITERATION  ITERATION  ITERATION  MAXIMUM CHANGE      MAXIMUM CHANGE MODEL-(CELLID)        RESIDUAL    MAXIMUM RESIDUAL MODEL-(CELLID)
 --------------------------------------------------------------------------------------------------------------------------------------
          1          1          1     -0.20264584                    1_GWF-(4,22,19)      -18.866739                     1_GWF-(3,2,24)
          2          1          2      0.16263670                    2_GWF-(4,74,49)      -121.11706                     1_GWF-(3,2,24)
          3          1          3     -0.16322068                    2_GWF-(4,74,49)     -0.75813791                     1_GWF-(2,5,19)
          4          1          4  5.53255841E-03                    2_GWF-(5,55,10)     -0.90925315                     1_GWF-(2,5,19)
          5          1          5 -1.68924827E-02                    2_GWF-(5,55,11)      0.20136025                    1_GWF-(2,11,22)
          6          1          6  2.30353037E-04                    2_GWF-(1,33,85)      0.17662603                    1_GWF-(2,10,23)
          7          1          7 -2.76961736E-03                    2_GWF-(1,54,58) -7.07864769E-02                     1_GWF-(3,2,24)
          8          2          1 -3.86761020E-02                      1_GWF-(1,7,2)       2.8968239                      1_GWF-(3,7,2)
          9          2          2 -2.62609050E-03                    2_GWF-(2,46,85)      -1.0701177                      1_GWF-(4,7,2)
         10          2          3  8.51272963E-04                    2_GWF-(5,71,63)     -0.23241528                      1_GWF-(4,7,2)
         11          2          4  3.41795095E-04                    2_GWF-(1,73,71) -5.86806805E-02                    1_GWF-(5,22,17)
         12          2          5  2.59438257E-04                    2_GWF-(1,62,65)  2.73941334E-02                    1_GWF-(2,11,22)
         13          2          6  1.32640870E-04                    2_GWF-(4,62,65)  9.07631275E-03                      1_GWF-(4,7,2)
         14          2          7  6.31645835E-05                    2_GWF-(4,62,65)  6.58838090E-03                    1_GWF-(2,11,22)
         15          3          1 -1.38438807E-02                    2_GWF-(2,46,85)      0.30689059                    1_GWF-(3,15,22)
         16          3          2  1.28340496E-03                    2_GWF-(2,46,85)  7.11776442E-02                    1_GWF-(3,15,22)
         17          3          3  1.92240319E-04                    2_GWF-(2,46,85) -1.57824427E-02                    1_GWF-(5,22,15)
         18          3          4  3.94577564E-05                    2_GWF-(1,73,71) -5.09337876E-03                    1_GWF-(5,22,18)
         19          4          1  5.65201833E-03                    2_GWF-(2,46,85)     -0.12388064                    1_GWF-(3,15,22)
         20          4          2 -2.93099500E-04                    2_GWF-(2,46,85) -2.39498001E-02                    1_GWF-(3,15,22)
         21          4          3 -5.09483062E-05                    2_GWF-(2,46,85) -4.65541977E-03                    1_GWF-(3,15,22)
         22          5          1 -1.67268240E-03                    2_GWF-(1,46,85)  3.55155040E-02                    1_GWF-(3,15,22)
         23          5          2 -9.18017029E-05                    2_GWF-(1,44,85)  6.30077292E-03                    1_GWF-(3,15,22)
         24          6          1  3.10899525E-04                    2_GWF-(1,46,85)  7.65560519E-03                    2_GWF-(3,46,85)
         25          6          2 -1.92303695E-05                    2_GWF-(3,46,85) -2.80809578E-03                    1_GWF-(3,15,22)
         26          7          1 -2.59525013E-05                    2_GWF-(1,46,85)  1.07118584E-03                    1_GWF-(2,11,22)
 --------------------------------------------------------------------------------------------------------------------------------------



 WATER MOVER PACKAGE (MVR) FLOW RATES   PERIOD     13   STEP        1
 --------------------------------------------------------------------------------------------------------------------------
                                               PROVIDER  AVAILABLE   PROVIDED                                     RECEIVER 
   NUMBER           PROVIDER LOCATION             ID        RATE       RATE            RECEIVER LOCATION             ID    
 --------------------------------------------------------------------------------------------------------------------------
     1            PLSNT_LGR_INSET/SFR_0           29      0.00       0.00           PLSNT_LGR_PARENT/SFR_0           13    
     2            PLSNT_LGR_INSET/SFR_0           41      2.381E+03  2.381E+03      PLSNT_LGR_PARENT/SFR_0           1     
 --------------------------------------------------------------------------------------------------------------------------




  WATER MOVER BUDGET FOR ENTIRE MODEL AT END OF TIME STEP    1, STRESS PERIOD  13
  ------------------------------------------------------------------------------

     CUMULATIVE WATER MOVER      L**3       RATES FOR THIS TIME STEP      L**3/T
     ------------------                 ------------------------

           IN:                                      IN:
           ---                                      ---
    PLSNT_LGR_INSET/ =      896842.9877      PLSNT_LGR_INSET/ =        2381.2490
    PLSNT_LGR_PARENT =           0.0000      PLSNT_LGR_PARENT =           0.0000

            TOTAL IN =      896842.9877              TOTAL IN =        2381.2490

          OUT:                                     OUT:
          ----                                     ----
    PLSNT_LGR_INSET/ =           0.0000      PLSNT_LGR_INSET/ =           0.0000
    PLSNT_LGR_PARENT =      896842.9877      PLSNT_LGR_PARENT =        2381.2490

           TOTAL OUT =      896842.9877             TOTAL OUT =        2381.2490

            IN - OUT =           0.0000              IN - OUT =           0.0000

 PERCENT DISCREPANCY =           0.00     PERCENT DISCREPANCY =           0.00


 MEMORY MANAGER TOTAL STORAGE BY DATA TYPE, IN MEGABYTES
 -------------------------------
                    ALLOCATED   
 DATA TYPE           MEMORY     
 -------------------------------
 Character        2.23690000E-02
 Logical          8.80000000E-05
 Integer          9.5213720     
 Real             20.764472     
 -------------------------------
 Total            30.308301     
 Virtual          0.0000000     
 -------------------------------


 
 Run end date and time (yyyy/mm/dd hh:mm:ss): 2025/11/19 16:36:09
 Elapsed run time:  7.615 Seconds

WARNING REPORT:

  1. OPTIONS BLOCK VARIABLE 'UNIT_CONVERSION' IN FILE 'plsnt_lgr_parent.sfr'
     WAS DEPRECATED IN VERSION 6.4.2. SETTING UNIT_CONVERSION DIRECTLY.
  2. OPTIONS BLOCK VARIABLE 'UNIT_CONVERSION' IN FILE 'plsnt_lgr_inset.sfr'
     WAS DEPRECATED IN VERSION 6.4.2. SETTING UNIT_CONVERSION DIRECTLY.
 Normal termination of simulation.
